32
 energy: -1.720622267448 gnorm: 0.000761594003 xtb: 6.4.1 (afa7bdf)
In        0.27280004255929    0.23118641845987   12.28786301672624
In        3.08160577140974    3.94579420888425   11.43282619334724
In        4.22584739351925    1.96114372734212   14.41196886156834
In        0.24445064431199    3.80437720993794   15.01462701040697
P         2.12677847889867    2.36855742148677   15.53817346059537
P         1.36551817647049    4.76848377054144   13.02569530023393
P         5.22304508351807    5.27987733689100   15.93360471891862
P         5.11555446405155    3.31520804593657   12.61213228129482
In       -0.99341441124459    0.44788249868795   17.78052812587322
In        1.71928239205231    3.73014725868583   18.71770086001898
In        3.61885414330197    1.28572581643582   20.33397387258562
In       -0.02219187382473    3.48271835029337   21.78103811805146
P         1.43863529824541    1.59954791231994   21.34594972782854
P         0.48890954743618    5.32320243605753   20.20182106030351
P         3.63987411447817    4.47450245679701   22.56212411022069
P         4.06898335545954    3.00798280879394   18.67136606154741
In       -0.52563647376750    5.20371261832448   11.53208556640367
In        2.69824022595879    7.62126580324122   11.13844061532576
In        3.31414931766210    5.59164465247666   14.40094346891923
In        0.46524079318121    7.75682217501663   14.65995566414763
P         2.08340873017131    6.78964425125811   16.21570947273633
P         0.94786323057001    8.64540991174460   12.46091823543822
P         4.29224913582447    9.88265644766861   14.93120297840220
P         4.46468183896267    6.75943827639966   12.55139206902627
In       -1.58733167135995    5.74713986133422   18.97013101925505
In        3.57866515264782    8.45250001340859   18.77156296890086
In        2.74716343974126    6.11201207834289   20.97671020627292
In        0.39715961774221    8.94785199767683   20.78659848244603
P         2.46231843534856    8.38017835816028   21.93530518723151
P         1.14995993140703    8.04918534608009   18.64779517526993
P         5.44849630267452    7.81655095188360   23.51051449467526
P         3.92959937263456    6.00608957982798   18.78190161610836
