308
 energy: -22.398922522230 gnorm: 0.000097055568 xtb: 6.4.1 (afa7bdf)
In        7.16519119834970    7.93497905123144   10.80749510248199
P         8.13073178657032    5.72532170721571   11.16746124468010
In        7.15262253030111    6.10833978104144   16.37079574687128
P         6.35722368809578    5.94779044396013   14.08457861974378
P         8.10232466250664    3.97400238129291   17.16824030564392
P         8.02673389965012    3.04842505395451   23.04177071337523
In        7.25179231776015   12.33418071568170   10.33545505963122
In        7.36634824943770   16.78966401880636   10.01072786621381
P         8.34484644536988   14.54358302057821   10.27013667196428
P         8.29267218695296   10.11783564953744   10.63032217686044
In        7.15222798103013   10.60221902421752   15.87731061459208
In        7.23140710533161   15.13091795343259   15.50736918696139
P         6.38254900193456   10.41940705615128   13.58948800017752
P         6.42286038336036   14.87871706021901   13.23708469802364
P         8.09882792570787   12.89388669344151   16.20158633482380
P         8.08604077434566    8.40895835874390   16.62732386463034
In        7.09366574792961    8.93772935887565   21.64507776186062
In        7.07403876241702   13.36597074659815   21.24105594375878
P         6.26851499166900    8.77892523292255   19.36764747014026
P         6.27545049473624   13.15072602387813   18.96017430442137
P         8.10607176955788   11.20094911415095   21.91970745801119
P         7.73213367788121    6.63927439205133   22.25578129971991
P         8.47025854540143   18.95301637976308    9.81168955643437
In        6.88285952148851   19.36078478468066   15.38167955433817
P         7.82985793643287   21.53397461236156   14.87141119678107
P         8.27351970141215   17.37686280113761   15.83911165730442
P         8.01956490403598   15.61140600492166   21.60174991765263
In       11.40474969341811    4.98583595510922    5.64973619992634
P        12.28043878501242    2.79445974715852    6.11084350381126
In       10.76379314537162    3.11721721759108   11.37172036636041
In       10.81500186015953    7.71367004833722   10.85954062998388
In        9.27526911039761    5.37780500602176    9.02244823816255
P        10.07215509673441    3.04974219585274    9.02575235036279
P        10.39167369162501    7.52816989214037    8.42289206737919
P        11.61543735739784    5.45028407096342   11.53366252493069
P        11.58162438703458    0.89627636982808   12.06565693917963
In       10.68776995119108    1.41972159809139   17.24399176319044
In       10.62260449162174    5.95831785609556   16.59931281967195
In        8.94509796624891    3.49855040799849   14.90969930386924
P         9.93790066190249    1.23735206801303   14.91223560067355
P         9.83647823211430    5.73370317969998   14.26319265479354
P        11.52846936788960    3.75989560669249   17.35400202129559
P        11.70180617270755   -0.64336859220900   18.13544640103252
In       11.42376474190040    0.17936273583535   23.29115398989763
In       10.99475979697431    4.43928260446014   22.44514038935383
In        9.00026393880578    2.09518870216172   21.03402101069484
P        10.30021792165104    0.00944575616688   21.11412676110158
P        10.11113031486840    4.13313883327303   20.14043977860938
P        12.27096182376064    2.51580382228839   23.37765620583033
P        12.62769232819965   -1.91586425061087   23.76114681073401
P         9.40251905776289    6.98344623714164   25.55947636964785
In       11.64791183706656    9.54716330506797    5.05924083427232
In       11.63165582423256   14.10348070074169    4.71980848639689
P        12.49610249098899   11.86279938834357    5.28184206360774
P        12.34683561837669    7.26468069450990    5.71013539243919
In        9.45772407503412    9.84487010935170    8.45607492746578
In       10.85740572014247   12.28318398999055   10.40045254030620
In       10.99980171867506   16.86517255808212   10.01914649226708
In        9.50098406157841   14.34517280432716    8.08418086718739
P        10.50656123785198   12.05868173849177    7.95503620681944
P        10.48942113076383   16.58461914821512    7.61959189046965
P        11.77396326562247   14.58605983574745   10.65946547309936
P        11.70575042682202   10.03236951576587   11.04218201791401
In        9.05242237632209    8.09596504908489   14.36756681074696
In       10.55159989680792   10.57521375536807   16.10328988140489
In       10.64058661536314   15.19239267722630   15.68100141411562
In        9.05413450447833   12.69581902800469   13.92406206739888
P         9.88289441096764   10.35574149158501   13.72574721992797
P         9.93604476996817   14.94390916603108   13.31857258947051
P        11.39934847952347   12.90862733033280   16.32681563227813
P        11.40558558306599    8.32254572164588   16.73802044347658
In        8.91212045984673    6.32441137816864   20.13902178031752
In       10.45693788974628    8.92666448606922   21.82120504875672
In       10.54373518728485   13.47568314820924   21.37302111189122
In        8.90285220004710   10.99312667112223   19.57943815491168
P         9.66366752354600    8.61706387401525   19.49758330230092
P         9.68388531621639   13.30501717484760   19.05650870461635
P        11.36758119420065   11.22905893368140   22.05782346514674
P        11.62762240046669    6.83759906745909   22.42822246330601
In        9.21701398737334    9.37317568666261   25.55462606986974
In        9.75731688196845   13.98492557314883   25.12186851764626
P         9.98255689514856   11.57806778003833   24.89181347091104
P        10.93868459560312   16.01776365003966   24.61492267051181
P        14.05138101125933   12.86428960518275   27.95832502283542
P        13.08359533071663    9.12334195865252   27.81243349724992
P        12.55548941003516   16.32188329488955    4.72586330213881
In        9.58225797917688   18.90117803754289    7.62321547755728
In       11.11217129608020   21.44527389572362    9.48193455224059
In       10.86094109454941   25.67896690428963    9.60962159297336
P        10.57946393461040   21.09598633039543    7.11522658671602
P        12.16930876981435   23.65393028863146    9.94191323795812
P        11.91061943315521   19.18292440583768   10.14461287081920
In        9.08505414496222   17.27829490101986   13.49529338840320
In       10.73638436000564   19.77732145907493   15.23656621889858
In       10.69310221639880   24.15782844758625   15.30196737198556
In        9.14638164498654   21.75662100998533   12.82418652622370
P        10.10262447653535   19.46439492887120   12.86110010851478
P        10.18330830703696   23.98048350685892   12.93296994044293
P        11.81543193659867   21.99070053525153   15.58636713477426
P        11.51334357288498   17.51616858771049   15.94178122933179
In        8.84653993551576   15.64639081034396   19.29347617493524
In       10.83815461865802   17.99741613288710   21.11721206179476
In        8.70276056528340   19.97697637636148   18.90101296469440
P         9.91286052426208   17.85389094501840   18.81166710544325
P        11.93278923473151   20.18349156456667   21.35440172475485
P        11.63400359821443   15.70254421714960   21.60830975725525
In       15.60513202032799    4.88104505493345    6.02339318824969
P        16.16808767720555    2.59179290275953    6.50622327923034
In       12.61578238471889    0.58408648286778    9.87349042769424
In       14.19307766345130    3.03391578543042   11.63144734213545
In       14.21086128932894    7.63977094357374   11.00931937447080
In       12.69093621012239    5.19446731394140    9.31748242231096
P        13.45022064737988    2.82850057959470    9.28144903227973
P        13.57256917771372    7.42531219332123    8.62344482232727
P        14.99768581776816    5.39363843786729   11.74238691046323
P        15.00126093445052    0.79357544113992   12.27767784959839
In       12.55874805915673   -1.13753704601025   15.89784584688655
In       14.18832694962894    1.43543943568871   17.35872078173771
In       13.97623513616509    5.96979553648573   16.66344308092351
In       12.40415153827453    3.42869630086519   15.06138269848825
P        13.26426744202434    1.09175694739118   15.08595007793900
P        13.15514771550393    5.69497872514150   14.34261219916152
P        14.94621193521955    3.80909008750211   17.40902875180461
P        15.16768135049363   -0.70409171263633   18.07955831249908
In       13.27512388688282   -2.46000587934769   21.48339482508174
In       14.90333698447194    0.43133679557556   23.16492131424811
In       14.59761084850517    4.77890027209272   22.39328292361294
In       12.76494051556605    2.13851764766536   20.96841549320754
P        13.81409244674835   -0.10943182327639   20.99708932010667
P        13.57227707485013    4.35202138614180   20.17658429588440
P        15.85237217145883    2.72120442141368   22.97975724611139
P        16.39386916745351   -1.50094537794448   23.42963997423772
In       13.72586601413660    5.13654726330336   27.14390489436672
P        12.87706471642625    6.11241458334316   25.11566865142353
In       13.64932150697552    7.00803023375158    3.62364602397220
In       14.94380387541486    9.53648202146668    5.57466920903849
In       15.60717507944961   14.00000927269414    5.20137204078076
In       13.80113527677289   11.72829357535929    3.17253944903815
P        14.36575255840538    9.31793459651546    3.17665316648579
P        14.83113097801263   13.93714671400342    2.88682660560862
P        16.31359790506402   11.61658999514980    5.34638743510215
P        16.04191920413170    7.30479283583010    5.85690253847191
In       12.77023822559151    9.77839879843207    8.82014381100079
In       14.22742055484505   12.23752862101873   10.63165600735644
In       14.32271351423906   16.77886579452861   10.25259219118554
In       12.85212789501541   14.35790046505917    8.44082088110022
P        13.68124312284493   12.02146603634880    8.22164578055414
P        13.75816404854496   16.59326266804072    7.85103734102360
P        15.16112181495003   14.52647880456812   10.89097118046924
P        15.04970869585607    9.97266803493013   11.22485917453437
In       12.33440494354189    8.04252467616638   14.45837033229725
In       13.87409226279112   10.53999165945293   16.20151218115681
In       13.97408727359715   15.15594949284645   15.84358488591043
In       12.32818081032610   12.66701898836557   14.04228230518861
P        13.13853614309580   10.31880497517208   13.84872169781627
P        13.23469046259642   14.91882814536237   13.49095513441589
P        14.69876603834241   12.86660918446063   16.45623243723878
P        14.78622320071950    8.31546999637867   16.82479761070960
In       12.29342033028585    6.47840545452148   20.07258278479914
In       14.16808537478378    8.83208666803974   21.66011928245399
In       13.90177921439781   13.45025290255419   21.47336591720541
In       12.23285930271875   10.95762708087117   19.74480462715694
P        13.18571966322786    8.68628184374959   19.39953052817658
P        13.06938170983275   13.21705689214089   19.14713506731891
P        14.89461634252634   11.19582649029272   21.73582357861904
P        15.59961717171723    7.06508413307159   22.68397912113705
In       12.83299618276732    8.56986575707390   25.46589336376568
In       15.73904591365300   10.20080685902887   25.56959096604178
In       16.31063522804767   13.86522518450159   25.34476154382087
In       13.19949862226450   12.74032356275860   25.69206249127812
P        13.62546265558130   10.67716404809138   24.36240573010700
P        14.12178119851796   14.89285919579376   24.84969158948590
P        16.80309500863785   12.00651112090953   26.88552184841472
P        15.91009980973894    8.08172949746072   26.78420613240736
In       16.01683794589928   17.82277503972441    4.43665676001483
P        17.25541982310240   15.85381643980940    5.06973351110268
In       12.99170518864296   18.95787686124735    7.92446792625158
In       14.56690500299908   21.33953005092347    9.86538642388316
In       14.93005822134176   26.00557212764689    9.94395457208683
In       13.26125476085643   23.53426343740392    7.70860731182670
P        14.02152026076288   21.17894503198766    7.46112097036232
P        14.24856623808673   25.78550403860347    7.62727678946033
P        15.52728406536317   23.62234631289361   10.10838039787430
P        15.34507929009115   19.03729194653899   10.41674520636182
In       12.43594820077561   17.27189174419370   13.65404097295763
In       14.16144442206898   19.69665787157285   15.38946109377749
In       14.66123713586322   24.43102200910596   15.13718940711971
In       12.61484275212618   21.84822848295248   13.24132063998830
P        13.38866824534405   19.48827935297869   13.04353454098839
P        13.65971435606072   24.06550682977914   12.94734554940246
P        15.00671447885380   22.02542939552107   15.55421557311191
P        14.91830011461010   17.43627923714475   16.11095590128848
In       12.19675112471283   15.53782659289690   19.19925963092090
In       14.40746881721945   17.62472659314501   21.03472650672831
In       14.61968419754443   22.26796243397518   20.69338147700205
In       12.61438114315307   20.01933337398025   19.00763981030483
P        13.38953602551182   17.67287822351273   18.77844512012749
P        13.59154119223201   22.21625854359560   18.47503123327562
P        15.28099204206145   19.94020472213069   21.21157912131101
P        15.36744346348093   15.43183147985191   21.77577911896934
In       14.45047465629773   17.31656587699473   25.02251571267199
P        14.41677529350524   19.62150133067056   24.34351029575419
In       20.29260905044012    7.66336511715698    6.81711170011467
In       16.12083529685390    0.57994575990054   10.11889620915503
In       17.63301434899820    3.17231900281223   11.94510735001285
In       17.54422767639026    7.70852646385964   11.36209857139374
In       16.20701137612325    5.19588034066128    9.59462705790707
P        16.97152979802114    2.83358066750910    9.59496196782565
P        16.98279345686913    7.47507935269914    8.95602013796114
P        18.51703853484547    5.49787233639152   12.00882159179612
In       16.03483050084120   -1.13959609991395   15.84208685294133
In       17.82604565585368    1.59270361608739   17.16137754873659
In       17.36481273392597    6.01606153942868   16.64387581516573
In       15.79529032516703    3.43958504193727   15.11334206845457
P        16.64649213763017    1.11283572907183   15.05088346275172
P        16.47992388159985    5.71140866515679   14.35451017755682
P        18.63668318747449    3.93032108142481   17.09967718520872
In       17.05700508265650   -1.95765447554954   21.15051667881595
In       19.34696685201841    1.08689207474072   21.68437127012253
In       18.34356022676774    4.93633439632407   21.65966464012470
In       16.13747976180415    2.25032199300804   20.57205345863457
P        17.56787238550231    0.25065460517763   20.21204239376561
P        16.89412212711697    4.45216385858607   19.70762479086720
P        20.25841083669376    3.36036312923419   21.71041839544483
In       18.24937233588873    3.67844354285405   25.98884012009276
P        17.14775362644935    5.34691764812636   24.61652231989395
In       17.56249987638241    7.33912340821863    3.94468015138180
In       20.23498331453085   11.43020412956147    6.29852027233221
In       20.90687708307484   15.11197043004493    5.64923689865482
In       17.55373182506190   11.32379110889784    3.26399585302027
P        19.08690777291271   13.52038264876709    5.73692635516068
P        18.98616858248025    9.62059994327802    7.39128472893419
In       16.10462366273311    9.80265598598529    8.99224569034367
In       17.78114980715027   11.99802522431370   10.82352887571170
In       17.68436036220779   16.62507783934279   10.60929708906245
In       16.31611474536246   14.20211512261570    8.72240673303277
P        17.29458016601296   11.92645432010337    8.37262821469057
P        17.48046306623113   16.34844033036510    8.15499116867550
P        18.42210317659297   14.35651709584386   11.33274160915361
P        18.67802750314236    9.89223504637257   11.83578117588881
In       15.69605446072464    8.05934968403424   14.54233462704130
In       17.31393738101327   10.59909967202094   16.21210733225923
In       17.46968229715397   14.98536358753875   15.97006945767303
In       15.59461959281849   12.63619380875491   14.16136301896529
P        16.46802135979124   10.33030511811432   13.89839348446409
P        16.61483524774576   14.83530788550678   13.65811736114543
P        18.39776137721852   12.79096326402229   16.67707826392659
P        18.16432719551388    8.36376607683938   16.87846206311024
In       15.96577820551422    6.70826903906065   20.22429173081212
In       17.65837374439597    9.45771430624227   21.48270199362564
In       17.68354472366294   13.05350088239201   21.89264246692393
In       15.72344093767557   11.35341009411125   19.40880305427356
P        16.49571409978671    8.97326167442925   19.34267280904218
P        17.64080224721921   12.96970719442018   19.41134506548604
P        19.33191661162522   11.17584398925040   22.22506419699883
P        18.90121828165748    7.33926605754684   21.93942413991811
In       18.04070997672559    7.33106252124366   25.83411269450309
In       18.96329723278923   11.09062932991827   26.08618423049661
P        18.74540318076918    9.25046448018697   24.44289958899669
P        19.61192050236027   13.06838054614144   24.75417806482903
In       16.47453183029515   18.64940869527874    8.24044146420727
In       17.96828371933763   21.29217894215687   10.15185777152436
In       16.63111293821820   23.37965337359071    7.90534144927392
P        17.23301879458393   20.97790327466428    7.80414176417180
P        19.94891332904051   22.70166639048309   10.13826825842134
P        18.58896163545884   18.94056041453362   10.66692984465533
In       15.83310100204896   17.18975417623127   13.82563895578559
In       17.62960457285654   19.66010683808454   15.54579544248109
In       19.03956691680354   23.03501791662028   15.18459434862464
In       15.94796463524507   21.72717496546024   13.27691319404851
P        16.79510139701641   19.39217465374094   13.22532343058074
P        17.72842390066027   23.40805189740363   13.18242364837193
P        19.50086814954968   21.00250815384692   16.49387469928170
P        18.26352618874275   17.32817376251505   16.10237566784398
In       16.24898748932665   15.09032816637251   19.47876054681538
In       17.91245612157021   17.54986477661974   20.85964084028624
In       16.02578740656373   19.85901492318464   18.84836920974194
P        16.68432313234601   17.44364355869676   18.71625415702088
P        17.21406396195093   21.96589709789151   18.47612764124998
P        18.33219541597050   15.45801753941004   22.11257193330308
In       19.78558316331069   14.73142431976011   26.48976386897848
In       20.18536340163672    5.31714858845941   10.23455205974849
In       22.38000913176473    6.64293222748922   15.90247944719982
In       19.93961907011995    3.81812366178336   15.02027869290265
P        20.60371766366739    6.08963099447569   14.33127166974002
In       21.24316017193136    4.63992899477270   19.86286345628909
P        19.86141160878889    6.35101206724562   18.79861363501437
In       20.69979101605578    9.60066026481661   10.45850576993909
In       22.41534487843311   12.87098880070162   11.70514649187920
In       22.60474872645173   16.68226097699658   10.46087311590808
In       19.78512627892128   14.05914159330837    9.27929953830080
P        20.99953989014130   11.98567094972999    9.93930117035785
P        20.51768981559526   16.43753896145898    9.24273893579340
In       19.26879265771883    8.16306871324069   14.66391323999725
In       21.84233602687506   10.79169592332211   16.14944149568859
In       21.46879014974762   15.11083063097086   16.01411697780560
In       19.10972019749402   12.58608178330506   14.29487481541404
P        20.32234807038004   10.39829817386993   14.29805499755388
P        20.13517631917264   14.84072348898003   13.99660412534202
In       20.31244345151939    8.37043055953003   20.15133844078272
In       20.53194507264097   12.11037438652370   20.26453132083120
P        19.51579794162014   10.33885002915742   18.86574310078801
P        20.21074720245528   14.48665756994041   19.66608792313189
In       19.82704023579197   18.70314590476885    8.53921351457368
In       19.28143550409576   17.18334085600855   13.84612606281411
In       21.35451998955313   19.96827037801876   15.26181749481088
P        20.18507398015270   19.39961434271924   13.21388143065475
In       20.78657264143401   15.43081968919398   21.84865692374131
