138
 energy: -10.213626288140 gnorm: 0.000143453323 xtb: 6.4.1 (afa7bdf)
In        4.46267475226964   10.88217229584475    5.00224428327717
In        4.14912279912521   15.38479773981083    4.43944027446274
In        2.40802133977269   13.08211475834817    1.90275699003105
P         3.12104012868567   11.01863229292735    2.95770989834913
P         3.31720905006279   15.35509984588000    2.10708909816537
P         5.27193828096500   13.24408007447659    5.11687944110750
P         5.73356225617046    8.78078862605425    5.31940492801040
In        6.45515975379595    9.19086062820739   10.75105944875805
In        5.21266909027582   13.64100738145898   10.51898211051138
In        4.48731066279412   11.00706693626461    8.47762650147719
P         5.92906399285714    9.01071651425066    8.34963620958325
P         5.00366351985708   13.41225381825674    8.04401037955847
P         6.67505494524843   11.66512986539407   10.92730390898749
P         8.12893860578403    7.50062159255374   11.38568292700688
In        2.40858799957878   17.57079056847784    1.53924387092251
In        4.10292371460110   19.93470322311879    3.98673400988307
In        4.41714965369622   24.46696838329177    3.56072239470504
In        2.75779481695862   22.13864834797878    0.99869607025439
P         3.36927827345633   19.83665282696264    1.62615631028174
P         3.83162840430237   24.34802684442651    1.16201190251932
P         5.13605090693309   22.18840526531513    4.29718951041358
P         5.03706734472716   17.71578782423442    4.68203815044359
In        3.71864085594771   15.54388038883542    7.94887767065260
In        4.54972767205440   18.08594644816626   10.06142194925390
In        4.14459142380166   22.50982194678964    9.61472602874456
In        3.35373923341624   20.06588420410673    7.41257457635630
P         4.52519295690122   17.87504537899196    7.57433316552893
P         4.32647242477263   22.34558429271438    7.12903960773753
P         5.38646912596344   20.42724622014644   10.17716521490609
P         5.87706541231506   16.03971802502008   10.56749833005581
In        3.52247036136874   26.70819392197894    0.53295838618073
In        5.26921183204272   28.94844133418134    3.19794707430280
In        5.86479254225844   33.28255068841504    3.79631650378571
In        4.48355367603775   31.12882601694700    0.16645482940761
P         4.79811687928553   28.79668162897543    0.77432947382660
P         6.56337724827661   30.95165868211853    3.91009584530759
P         5.65110354989773   26.59836427251252    3.95522524469613
In        3.38465226298237   24.64626718985952    6.93471132627748
In        4.33908470454519   27.04302537206937    9.20810744927423
In        4.79691760944274   31.37798276073735    8.91924524963569
In        3.31602637442538   28.90623063247584    6.29806563902585
P         4.58776425771547   26.82368191585631    6.73270569289639
P         4.56228119456200   30.98264990960099    6.53288418584534
P         5.62044243733867   29.14681710686980    9.55320622669791
P         5.17404019736651   24.76864341357150    9.77589271900933
In        5.92636958912148    8.62174328349936    2.88638814498001
In        7.94642272226718   11.24061014535264    5.09045813927468
In        7.49752152663079   15.57561092664802    4.75952208071439
In        5.83729307976249   12.99835182343213    2.69988135550288
P         7.05354361486851   10.82066282249681    2.80647150062823
P         6.78128487744235   15.28442608353779    2.40360480996360
P         8.87659766653105   13.56165421574449    5.24617434150193
P         9.32498642635174    9.26483235260232    5.70367217171132
In        9.27556420545233    7.38043324259317    9.23849376180510
In        9.75874349290820   10.32876208684407   11.00741217978135
In        8.78079384684214   14.29231114021312   10.61333577005781
In        7.72458741729572   11.70911313512240    8.69009672925439
P         9.28858291228584    9.77550452947992    8.61636917349654
P         8.49183209920860   14.01053653713053    8.13939792499224
P        10.62187856112136   12.62558048162491   10.61825698285866
P        11.80710320541793    8.97976790067223   10.78188127652913
In        5.78953764561230   17.56508676299008    2.30873939662872
In        7.49592460324134   19.93058476847287    4.54603596636334
In        7.81283155992736   24.14476696425932    4.37320527148271
In        6.06556972475501   21.99314384108656    1.99229310822844
P         7.02984908738813   19.71031445509411    2.12529016297805
P         7.53892205832503   23.98951287507085    1.91843420698834
P         8.85554630520439   21.97759442623840    5.02878158384285
P         8.63977345999779   17.77981660919934    5.06131274390095
In        7.00370398868718   15.99960690131046    8.36937946275972
In        8.10208923630647   18.45386014477516   10.41765482884954
In        7.78005511399238   22.71563487009356   10.29025293402031
In        6.69042969979456   20.34401553380929    8.08126652574324
P         8.01744379871123   18.23261489718400    7.92104201040489
P         7.98062822825982   22.46147658621360    7.80434575681640
P         9.17081092728674   20.68350140612539   10.63002094109550
P         9.72460510134244   16.58799962662821   10.65462111391867
In        6.77075475097510   26.34459056084684    1.74181996582848
In        8.44092927463431   28.30965378620932    4.16753618999040
In        9.88812838031669   32.89104177947595    4.37671739701137
In        7.94329703612512   30.81161154586716    1.84675795622032
P         8.24768540647382   28.34685012418209    1.70130832616742
P         9.43671745505145   32.76161006647072    1.99710334821925
P         9.66455740385498   30.44704862107660    4.57118681554701
P         9.29481372569844   26.08926602257204    4.91174538248618
In        6.59785739634727   24.54302848801735    7.76578061259626
In        7.80131722562000   26.67007989055736   10.11776184071956
In        8.44649031393404   31.30101514830578    9.50985873239397
In        7.03852394164250   28.79289234344167    7.55302787717075
P         8.10706547679624   26.52461056893638    7.63936936698004
P         7.90457747118676   31.06378439225342    7.14509182639137
P         8.64168703973527   28.99952316942985   10.38059160116866
P         9.19733679192444   24.70535820815069   10.76428859916192
In        9.69451612055256    8.61318582360868    3.38459583086005
In       12.55254542363192   11.19838509149624    2.89427925675012
In       12.24849000979284   14.82567922054653    3.37896090883005
In        9.29895281269333   13.25706889708123    2.81550434769790
P        10.11489942061521   10.92210363464895    2.64680996431326
P        10.34177167716975   15.30408647354309    1.88644450802072
P        12.13745229383817   12.75143845355986    4.75430248471330
In       12.34044402880645    8.76854963229375    8.41849685069724
In       14.37862120211668   11.48236726340680    7.40850010734525
In       13.54837753888045   14.98337527779322    8.08808167548393
In       11.18848471430489   12.40559340210095    8.22302005233668
P        12.15785892779511   10.60082021311801    6.76538612545396
P        11.39767866726589   14.52139480530676    6.87625154513603
P        14.20192439452198   12.96155227737500    9.33539608618651
In        9.28923548831822   17.40458505681609    2.68496110654275
In       12.22903725922004   18.60508911646463    3.56318280500335
In       12.68939380264636   22.81396819035379    3.93432947005840
In        9.71517592177808   21.62298481576360    2.71919803353892
P        10.53991768332223   19.41407388049822    1.94805627788363
P        11.19322037855609   23.51477949540057    2.10160654620328
P        12.13384459920760   20.63711166292051    4.95395517261099
P        11.78639559600294   16.63761451474497    5.01394960417289
In       10.56020799467114   16.41891291174131    8.33552806208190
In       13.15513022907613   18.72150065420114    8.43905345044083
In       13.19761011342346   22.38567355165009    8.58109434113612
In       10.31289793161056   20.43063206828728    8.45043065066585
P        11.09498980905497   18.50631216968395    7.02451882630437
P        11.12490185801456   22.44882120151646    7.18249169729034
P        13.02244050067613   20.49502049067124   10.14483274287022
P        13.37423870974174   16.70375103671225    9.83885414179210
In       10.22686626883746   25.73542114859026    2.63046304806575
In       12.85411298036575   26.61236840463956    4.33637437875887
In       13.24752474000585   30.57716403885422    5.41364397211964
In       11.09568390142460   29.91423018441000    2.59448834173929
P        11.85686909457345   27.56995477059882    2.28018732245549
P        12.98816588778568   31.38698707339896    3.14545785012795
P        11.85799897596541   28.56863454552828    5.49246072245354
P        12.05814363079883   24.58602585355216    5.54554893374235
In       10.46120051474164   24.38799681785734    8.66922038363519
In       12.76284167290529   26.67907736856414    9.38247112107581
In       10.29897451923483   28.60811327565457    8.56703724580591
P        11.14379355885588   26.49723063400972    7.45798896865866
P        12.03306967115326   30.20546190433749    9.16340361679782
P        11.40809853627308   27.01978167604222   11.37235326845412
P        13.63130904237692   24.43369752495609    9.84714894990480
