46
 energy: -3.266217665454 gnorm: 0.001903998287 xtb: 6.4.1 (afa7bdf)
In        4.83601927262807   11.18714771755068    4.63145274449880
In        4.61406220736852   15.89307698009665    4.91211334312666
In        1.58595389593044   13.55443378957078    4.35569669731669
P         2.52440218979736   11.37726487561159    3.84017760831464
P         2.41591599145122   15.79487775365533    3.79540732358535
P         5.48666819089647   13.58819849123724    4.56534942274129
P         5.90137262727374    9.12142278568847    3.82637271877433
In        2.19048192150533   16.59218913202362    1.49210012316860
In        3.31026064628787   19.26217396938243    4.25621093450598
In        2.69044945881229   22.92408709807065    2.61025545124998
In        3.18303796351867   20.53614877455097    0.18718643339495
P         2.42352817807798   18.99090027187033    1.95219687643919
P         3.33171546656094   22.99801035337949    0.21566408883623
P         4.40368714797848   21.15883361956140    3.05504253397015
P         5.54638038747104   18.20363469185192    4.66946326571303
In        3.24774653001477   25.44647336094810    0.45774548049571
In        3.45235638523184   26.17189643429536    4.66569977746909
In        4.20656221375997   29.85375724239470    5.10348473550843
In        1.66447520668715   28.80312148020274    2.13465449844459
P         2.32113904493425   26.47085336655279    2.48970700212523
P         2.64904666702827   30.61106236640559    3.40441968941884
P         5.42095442728361   27.70284249950705    4.88210498166192
P         4.56752151014814   24.18782442443374    3.64465747415107
In        4.58508477848531    9.07282558057240    1.78306683951153
In        7.20990519804705   11.67729931463429    2.13589282492876
In        7.81930962739807   15.38383765524885    3.16423293267860
In        4.44849836500823   13.70897579319433    2.31264375294634
P         4.89358258913232   11.46607443132069    1.33842485840393
P         5.96227873027843   15.51540746776638    1.54846297147196
P         8.52782535725843   13.07744232449597    3.63237812515373
In        5.60613622001218   17.88378790602441    2.19758300833600
In        8.47771240685641   19.24731122233061    3.64852052894047
In        7.97378894665787   23.04568755546904    4.60707006103924
In        6.34411682608959   21.20562173025681    1.50677399747597
P         7.60935184139523   19.07255665526419    1.34322493494576
P         8.04400960304694   22.90307927837617    2.14595102273375
P         6.92160430687489   20.81486812915673    4.74235998133235
P         8.29443985963999   17.10396937368312    4.85438549935977
In        6.22917752963395   24.56793128696139    1.84563715162587
In        8.33357245059829   26.91903701026911    3.63800604728911
In        7.37120473293712   30.84966906865423    3.41200214339305
In        5.26331067846886   28.00756930404398    2.40401803415825
P         7.21250919916944   26.81522698958209    1.44173332639651
P         5.56176309114455   30.39006028889705    1.86807790792198
P         8.14597397163276   29.05517938286821    4.84590003117052
P         6.94948865962960   25.28331077207645    4.87495081385366
