4
 energy: -0.179401343893 gnorm: 0.000178459583 xtb: 6.4.1 (afa7bdf)
In        3.27061648632810    2.98144254223785    3.65897472305831
In       -0.82530396711409    3.39451470480016    1.25814794534035
P         1.19286928690183    2.86734844155617    2.43291695996535
P         5.29691319388425    3.39281431140589    4.86200037163615
