74
 energy: -5.240662030418 gnorm: 0.000383530366 xtb: 6.4.1 (afa7bdf)
In        3.95455260107391    6.21730807370229    4.59068662336257
In        4.22884366637958    7.84886825831743   10.98295983906340
P         2.83468614796773    7.26375852614420    9.08392600384464
In        2.49577413821217    7.62477744602086    1.08677153762155
In        2.87563210517303   10.41403277894161    3.96475812344098
In        3.21804282315413   13.88229843453154    3.97607330870459
In        3.28956047597889   11.91987647147668    0.20478584621188
P         2.58800718196293   10.00136190757936    1.55288270881020
P         3.13866130791771   13.99106546013254    1.51235934530762
P         4.72263706127019   11.96605775384721    4.55598160156736
P         4.47134378626268    8.57482402862374    4.42076281823819
In        1.76213399294552    8.84366940756705    7.59327267113736
In        3.18218188687829   11.20142535976684   10.23593701663217
In        3.11371922570289   15.34856441990678   10.07557906700361
In        1.52979578771563   13.29460749776680    7.36181326062128
P         2.61479140886920   11.13825047851194    7.81955405497352
P         2.73364896364563   15.42876684455955    7.61980672839782
P         4.45689847334411   13.31293153600449   10.48011596936463
P         5.35162258701014    9.99460947054860   10.45270320808757
In        2.81441190346436   16.16108862317032    0.41531849346258
In        2.76803837795017   17.85609955094518    4.29219999681977
In        3.00402184594725   22.03327589856451    4.95088913780091
In        1.84842599154989   20.42756686698983    1.37559047281184
P         2.57388697323750   18.13352215796744    1.85060934603820
P         2.49544402023414   22.43988322944869    2.58309001431566
P         4.06781824584124   19.78929580703703    5.15897138144184
P         4.27552227897058   15.95555285050535    4.85535244218458
In        1.39540995219744   17.50084197918561    7.71563112376400
In        3.76107860793315   19.15394534662859   10.42401548716652
In        4.92644787127880   22.76020679438801   11.17082687744274
In        1.83746377925823   21.55392915635139    8.48203284356946
P         2.93962754866996   19.38510442435381    8.09024727159462
P         3.37305347977004   23.22092538767898    9.34064240566344
P         5.81399207411893   20.52500052823214   10.60033937913023
P         4.91134861695432   16.96423604314277   10.61468753277784
P         4.16694882420451   23.89801575555442    6.08568780271414
P         7.01908160028930   24.00739703694192   10.91638582822427
In        8.44231457148360    7.47964628932059    4.00962871171284
P         7.01924619823360    6.90920528217673    2.13277673726457
P         6.30171072386034    7.13658140174709    7.59288289536372
In        5.69293113531622    8.97365341862314    2.31082513287613
In        8.45863770184066   11.25815288278861    4.10695604284301
In        8.34478378727816   15.12212237828614    3.91961464449812
In        5.91578303636333   12.51854646702821    2.45121125245337
P         7.47024694840225   10.65710004205260    1.92613770492678
P         7.01928973042836   14.66506464223245    1.88968567686663
P         7.49445764342388   13.23073684153166    5.29564771955267
P         7.56940515008531    9.31157394227925    5.36408866989589
In        5.28875751167963    9.30200617453565    8.07485352648906
In        8.01577899121519   10.89373091166415    8.81741552122929
In        8.04308035632010   14.79606708817147    8.72994981297414
In        5.19707072323389   13.21762290949074    8.12778126692309
P         6.35098308441509   11.29251256670684    6.97286985162916
P         6.29445901741370   15.17948937047645    6.97561962745425
P         7.64665709660740   12.88052575172494   10.22063001239463
P         8.20586503190351    8.88696390726088   10.19309082211748
In        5.45270925692702   16.40306952416141    2.71027343550835
In        8.19448092252427   18.91341143003433    3.75229514633081
In        7.97767438722586   22.56344415174596    3.12963251892815
In        4.99542642019863   20.18389419295320    2.88847447520773
P         6.55299334166500   18.49907483971038    1.95755339639144
P         5.53490183789812   22.60706975314622    2.77305401544914
P         7.41602722148913   20.97183875298936    4.91156102143698
P         7.46071125627833   17.05524801647588    5.21968669253639
In        5.44050059073931   17.19272309470029    8.21643783138584
In        8.42756458712351   18.70548812797623    8.35517335155662
In        9.18121128937502   22.44765543847551    7.86909392290086
In        5.77340809748184   21.12348921073925    8.20981969277213
P         6.43585485436524   19.10091685726662    6.89259022213443
P         6.91532069846367   23.07608367395904    7.12748782079582
P         8.89933815414376   20.76981589607276    9.59820287218396
P         8.19089080243705   16.89641620435331    9.99749512614586
In        4.92210000604717   24.70036072432713    3.91118953454115
In        6.60113972274929   24.93267625176479    8.72054572499981
