70
 energy: -4.655694665247 gnorm: 0.000353516072 xtb: 6.4.1 (afa7bdf)
P         8.16419657705156    4.52772094320382   10.02369384398608
P         8.12694671013530    0.35669911809735   10.96444056498806
In       11.05329598816654    3.10564677742924    4.15094183219060
In       11.22021486139063    7.45428856581143    3.47585006816471
P        10.26534582144468    2.76176778224471    1.88699396322339
P        12.17963237488693    5.32422903666533    4.16069391060999
P        11.70491576787246    0.99649087110356    5.25738393146459
In        8.85541556930797   -0.02336758103804    8.71122174867573
In       10.93004110728834    2.39041235110238   10.23740462538545
In       10.79996912996395    6.87971027626238    9.07911998409105
In        9.14244218727041    4.06244391640508    7.85476093385866
P        10.26243399348439    1.83541547515457    7.90638159203842
P        10.14110656404526    6.08229966504811    6.86843100802283
P        11.62594786988363    4.76724190126889   10.04824354151838
P        11.70529521093916    0.25604868494974   11.17725794773189
In        9.04867689379048   -0.97869639847370   14.51448096311954
In       11.20274998655905    1.68778305584125   16.15456816647275
In       10.89320870182191    6.05858646072388   15.00796891928444
In        8.88915478395156    3.23503904756038   13.59086188826514
P        10.11190392213605    1.14312491298698   13.98908738622517
P         9.84269132463827    5.36731257075845   12.91647359615824
P        11.98095270506544    4.03866915010044   15.91665226715853
P        12.22053400314703   -0.47978318895993   16.70782086849361
In       12.76668821038836    0.25479342055056    3.18845236577835
In       14.39684187747528    2.89620700118769    4.73921835957599
In       15.36836747474204    7.47075300759174    3.69470656860932
In       13.34760116570595    4.74256381028134    2.04373059129099
P        13.82541704290430    2.33274496625998    2.39836465682292
P        14.66304219117111    6.74792310872433    1.48994203593437
P        15.42875270168718    5.14797037396146    4.49165598769489
P        15.28797641883883    0.75877690027674    5.58453936603580
In       12.67750676739841   -0.38766341289124    9.03328423989554
In       14.29734464397847    2.37483714469497   10.31762349465036
In       14.31634344374809    6.99134457253727    9.17457044942871
In       12.62445389017266    4.15675749461234    7.86282038220563
P        13.38840890160084    1.78818624598220    8.08853158648827
P        13.51410335936000    6.28206027888670    6.98040316728915
P        14.90474258900815    4.77720521413185   10.09411953959822
P        15.16222462994819    0.29241583861836   11.30626630488716
In       12.95643386621408   -1.19608621437982   14.50963605764023
In       14.60219914847673    1.76794419420911   16.00347250348536
In       14.34794520827618    6.31385687795377   14.78835647515492
In       12.58850685204184    3.43135200946952   13.59567804446885
P        13.49005555482463    1.12640998568308   13.87908764554498
P        13.28204953318265    5.62774193092373   12.69976794295278
P        15.15699211605417    4.16214240955381   15.67315927565896
P        15.86278988103211   -0.25261778777597   16.60263804344281
In       16.46094744600195   -0.10198379039265    3.64138146415171
In       19.19771496634529    2.18747518074733    4.19764247910908
In       19.26429286329985    5.87952872176559    4.32033617881838
In       16.62017031834465    4.23614431714622    2.50390985541750
P        17.38775758892187    1.88159125179601    2.54799848237925
P        18.38602452341222    5.88643821767571    2.06472599334458
P        18.33190113979521    4.01536436333610    5.59168591509784
P        19.48289532181289    0.29711196510243    5.68634427086322
In       16.24430871670055   -0.34124975517352    9.21905649566681
In       17.75764928892696    2.54826286871778   10.31184076991132
In       18.12276337883049    6.76628269017774    9.46176143344805
In       15.95732962884679    4.10591831396759    7.95404192521917
P        16.83934691483981    1.78478027824450    8.12822944669706
P        17.04301561838701    6.23633314274380    7.35354582062591
P        19.09189600038439    4.64468666649906   10.23262659483184
P        18.85354609496009    0.56714407765245   11.29025243410254
In       16.76446103280700   -0.86447328259231   14.44257895429508
In       18.65776683423554    2.32206484506075   15.43763924533724
In       15.93319469839647    3.59282525273478   13.38837389722574
P        17.16824973637285    1.45280603209632   13.71479900343433
P        17.30036016373452    5.53442347840220   12.85480935621641
In       20.17872911726080   -0.23633508987203    9.45661285172868
In       20.63818158490262    3.96219748882584    8.49114849640652
