122
 energy: -8.310574178397 gnorm: 0.000097564939 xtb: 6.4.1 (afa7bdf)
In        2.77151369030255    3.48012570285543   11.02994162246657
In        2.92501106285825    7.44779187252720   10.36812388194579
In        2.56300848560023    4.85396079207708    7.12928876917475
P         3.10437369241053    7.07566897232260    7.93955440794368
P         4.09080860362238    5.50495941075235   11.38688546800609
In        2.71163861502199    2.88857134516994   16.87989593141650
In        2.53529839595576    6.42409081855163   16.37907284749673
In        0.51318616510037    4.23733377877417   14.17500028127562
P         1.95272379137178    2.33798500057513   14.62895131608604
P         2.14903799006283    6.07034065250475   13.95830879028329
P         4.25914827662327    4.81337625153859   17.16853951129419
P         4.38441307394637    1.18684856933871   17.45119739867177
In        4.17008658851258    6.87964189724699   22.65592377693767
In        2.39031289105155    4.15119857497167   20.68715392127832
P         3.17357004364256    1.88335445177686   20.52823504204391
P         3.00530960753512    6.52159426880751   20.50329377042938
P         6.32002528129482    5.78988048187959   22.20726156522574
In        6.08027942942302    9.53683146080987    4.80708496358218
In        7.70379495158019   13.68314826114757    5.48546689632585
P         6.38224121092989   11.70846401664269    5.83777941103069
P         5.88874561973740    7.26750307665396    5.54629732734404
In        2.57919004764990    9.25347852577818    6.95026701949220
In        2.90725539710362   11.27484477635245   10.10077135787026
In        2.76842744651944   14.82118967203780   11.05871965510613
In        3.39380416191443   13.77925619045265    7.05335529838513
P         3.45708487339254   11.41480118949227    7.69978737408208
P         2.20884925521733   15.15457724282621    8.68588279021274
P         4.26338105604640   12.87225266751364   11.46082587697718
P         4.25536033031250    9.41878938012881   11.08265442584792
In        0.77354838681922    8.01415748809802   13.32739218801842
In        2.36072356874624    9.91377311749964   16.15132546275138
In        2.36772150374263   13.59587580431652   16.61381461580867
In        0.77420856804067   11.87804150311757   13.32027242327838
P         2.26478345133858    9.95056398147750   13.66680715547475
P         1.94088429634869   13.84983657936255   14.19549088676571
P         3.92479136220782   11.67639949073996   16.97003847557726
P         4.06768386735957    8.28989471892845   17.02169922306919
In        1.88398916107387    8.65582644026125   20.03588776062594
In        3.73675501432105   11.09225919826898   22.20814623720436
In        4.24884214729615   14.78986288224633   22.40149072130573
In        1.45622959955543   12.90362340404280   20.14698551111199
P         2.88013671127160   10.90547693292756   19.88181006391044
P         3.04400181757445   14.79119968178883   20.23586296714463
P         5.60085139388817   12.71082958625557   22.49332737059465
P         5.20086419713559    9.11582857504495   22.45466811161843
P         4.50779978769389    9.66759800922055   25.78819082105516
In        2.19144191972814   17.52043326379832    8.05497336514365
In        3.71119858238612   19.37330208102157   10.85997740815015
P         3.83682627717844   19.27951013413562    8.40583694266013
P         5.29439181257604   20.99358111899700   11.74250922945311
P         3.84701112516776   17.00185449865117   11.58835919427927
In        0.52386210933865   15.84760218668249   13.94821200621884
In        2.41665672320480   17.29060683419905   16.75516130827175
In        1.14704308098611   20.07194860553371   14.35190410289520
P         1.98430088376709   17.78481707409345   14.35625259987242
P         3.83933914382704   19.18824650330307   17.42428540432428
P         4.02228528039631   15.40037155835761   17.01372359560022
In        1.62733473490854   16.80124512283801   20.34284932398686
In        3.91458438265883   18.70399827934628   22.68856970715851
P         2.81028450368346   18.91056581351942   20.53279843283632
P         5.56243310380046   16.88813970810393   22.60632293797959
In        8.48355328902480    2.85420847151517   10.59712266675049
In        8.30878677129224    6.53085209161753   10.68189612934046
In        5.52129936533550    5.25410748470044    9.37865272015436
P         7.09226584850713    6.97229879237412    8.57128948160986
P         7.43049634758386    4.57014705228466   11.96213613201227
In        5.33082731197194    0.81368989307247   15.25345101855827
In        8.21955814696300    3.27409579243232   15.21277096636376
In        7.79888936507877    6.97545693630211   15.22512112729655
In        4.97084604386559    4.52546704891621   14.80040422138764
P         6.26758527858103    2.60283311168168   13.84655068155351
P         6.01531487724439    6.43896545387522   13.54985531840681
P         7.48942930766305    5.03917196804067   16.76012150739531
In        8.63418649054831    6.50247424473584   19.80845174036120
In        5.86559084276405    4.88513881153427   19.98200986811020
P         6.90224291913918    2.90293044054137   18.99268805525197
P         6.44670511013781    6.94279076956355   18.65652986056305
P         9.09460708192239    4.61012952928848   21.27214938194429
In       10.29747414943066    8.99538144904920    6.75808103793825
In        5.73410143664982    8.99101606846097    9.12908941998020
In        8.37410728019782   10.26599298056430   10.76722332019621
In        8.56493993405790   14.19556662335047   10.78216230531632
In        5.82130887786478   12.68700938499863    9.52161075638044
P         7.28891177334209   10.87880424522333    8.63383610061041
P         6.97954786488833   14.81734307442575    8.98199675278452
P         7.62512152599113   12.26313853978267   12.03407611846997
P         7.31012984852253    8.38841700031362   11.98436551217698
In        4.85773417983111    8.37916283192465   14.66395123635099
In        7.70364806072346   10.88568969331152   15.30488917223053
In        7.66472974511584   14.76321256527840   15.29905579145546
In        4.77795938421933   12.16947724174051   14.69485703364291
P         6.02395321621150   10.31047698562312   13.54011844000187
P         5.98757553257038   14.07172246058861   13.56748422289475
P         7.14266324374292   12.82637480733421   16.76311526149100
P         7.21507966492755    8.89094267796001   16.70285430794764
In        5.55122122454272    8.84654444938452   20.02875835673126
In        8.49214237103849   10.25147130833496   19.77946369479201
In        8.45753761904832   14.66370876967848   20.04381618436364
In        5.67277310440957   12.73892081790028   20.02121151581214
P         6.34353356699133   10.78596850712771   18.59945639880204
P         6.29072119221965   14.87214571232154   18.83991041869065
P         8.94895215099822   12.40631768724892   20.86194228149209
P         8.59790965561232    8.38957236524290   21.39483962987046
In        8.31884409492809    8.86599052122807   25.14752393540336
In        8.28958300161268   12.57026650716532   24.85814074603961
P         8.48709553327089   10.57646296881331   23.44736892739340
P         8.35812490957304   14.54046490057902   23.46347917568130
In        5.24581616954960   16.49688393519489    9.58295359488290
In        8.61481790833506   17.78709626379924   10.81531030978804
P         6.64079841345343   18.52395363675475    9.59306021044944
P         7.45209885580592   16.01769116253866   12.07658375844933
In        4.68622883329939   15.89624030454933   14.68316931036702
In        7.87667575268974   18.44383748746390   15.16729787024667
In        4.69622554467789   19.46045756631252   15.15458443232670
P         5.93675782213563   17.85277499676450   13.72510863132685
P         7.84053394450526   20.62502396279028   16.24541698191320
P         7.18213126293389   16.70225864355767   16.77796792569734
In        5.64347289476114   16.92140461312866   20.12817519706445
In        8.89983803395455   18.38044163372188   19.62182664094199
In        6.12722966809136   20.75225509418600   20.06781199802859
P         6.62003863237405   18.76714302711613   18.70656943932139
P         8.69796669040996   16.71408715693508   21.39391851479146
