142
 energy: -9.472485115984 gnorm: 0.000770567555 xtb: 6.4.1 (afa7bdf)
P         6.26871927092818    4.55959005687173    8.05123854159247
In        4.17560756819102    3.93455549157462   11.72217322590575
P         2.72263929275924    5.81171287302685   12.22262878706801
P         5.80118994611798    5.69527708979268   14.42729130525536
P         6.51425561768108    3.15067567181229   11.76965102473290
P         5.55882365196833    9.27088477659943    7.29888424115846
In        2.57957478005607    9.09928802465673   11.08265116623741
In        3.73754651593560    6.99515159041287   14.13470308470249
P         2.47890904580397    6.90494985682724   16.24215710890907
P         1.21029158616302    8.77563473807203   13.08215344369288
P         4.65648628709249    9.89870539222731   15.84347584380770
P         4.64983179902875    8.46214886694547   12.29513692584977
In        5.12266957636160   10.50675701875696   19.71581386518562
P         7.02448426566301    9.02510448811420   19.28099783157382
In        2.83188569221823   13.85262571681956   12.53808749469430
In        2.73739083797667   10.24228961419422   14.34920925958819
P         4.63334425573867   13.57839014521175   15.96178990908370
P         3.92985413824869   11.65722032606316   12.68307851820037
In        8.09386800243490    3.95005304282799    6.56467046712060
P         8.69877345138844    1.66930317070008    7.15389502000292
P         9.03352600787572    5.29198648785435    4.73726230913984
P        11.40503384021002    4.64854874513168    7.39653210752743
In        6.48906495194924    1.03824774834182   10.54621497291319
In        9.20782420178819    4.14651143274159   10.14799199585031
In        8.51752362619194    1.86736420356046   14.10980923066723
In        7.70718307351628    4.90898171787420   13.07751918147570
P         8.69833230995111    4.06962207505546   15.20492238492558
P         8.25962308052628    6.26781050834955   11.01392888410506
P        10.75753813061639    6.23745594791668   13.88067560528039
P         9.49113205251549    2.37632420851797   11.87494400122996
In        7.42377621418414    3.43166371361886   18.43245968481258
P         6.38269451043904    5.34166416476090   19.55201431944714
P         9.83969596782106    3.56572335200052   17.91798762104752
In       10.12135982212288    8.11292279775314    2.86135459136762
In       10.60961863844909    6.61297486370046    6.11174087730968
In        7.18069456129334    7.67082856093764    6.45722745490385
P         9.12553314991759    7.44923286657577    7.92282397636388
P         8.41723177643470    8.62340539500236    4.55028540838850
P        11.69014544885530    9.72937442659260    7.60763383099939
P        12.05302699418450    7.75052010522801    4.38922812207097
In        6.03822061036905    7.27228294560224   10.63210331711728
In        8.88453378875134   10.08187463843218   10.07446626878251
In        9.27983282554790    7.81388890587841   12.70923335051742
In        6.22088854792120    9.39686769398324   13.99723012460706
P         8.09190636565971    8.04851354006096   14.87014854444422
P         7.33384464969757   10.39372782159078   11.98144504609746
P        10.93290104113740    9.73910336181355   14.74317911855392
P        10.82505265966867    8.85986209661573   11.01184839721373
In        6.12742281334277    7.16075042138453   17.92953665731947
In        9.57658520949665    9.71445717787596   17.67558901747352
In        8.41296238234698    6.32692012558959   20.55547543659488
In        8.70461848343541    9.78815460895868   20.93569436390635
P        10.11801472747753   11.29140089886807   19.51831535643266
P        12.03675468522879    9.84889825017986   21.84021903281723
P         9.53279418929678    7.41434853278593   18.61769396956569
In       10.00799389892418   10.06835662194003    5.82815705253337
P         8.38961303690608   11.68225147947640    6.71709848827250
P        11.14418661719217   13.97249756728263    6.84506537009906
P        11.57580257772771   10.99646127730487    4.14991619180087
In        5.35790579971823   11.19862846385780   10.71519387214299
In        8.06925820886136   13.74510488270033   10.38707289142641
In        9.28930723648617   11.02706512446259   13.41608902625390
In        5.84216165656766   12.57896890343644   14.07753594041363
P         7.91356855503171   11.91927599423939   15.26004250708963
P         6.62969671882917   14.09355439024761   12.29958752972178
P         8.47891569744512   15.47151004852665   15.13526373576626
P         9.90438762511323   12.71000883882027   11.68047494919759
In        8.69289366342606   13.18331420079507   18.87298905294359
In       12.30800649334241   14.93840604007806   18.61059592513484
In       12.27745131732950   11.95540816655515   20.59882640462232
P        13.68737878534472   12.91749355982680   18.75260817149646
In       11.54246939181340    3.09204591093254    5.51598535466213
P        12.55581751592539    1.17951604427148    6.62952869977222
P        12.54267042150575    4.62775115876987    3.85603921292201
P        15.42696702661481    3.22312749235582    5.89560271980225
In       11.15538903939391    0.81141187910674   10.96560707614493
In       14.38193753017924    3.73174461331668    9.66046091006437
In       14.36021136366137    2.07322808810401   12.97534615103236
In       11.06946630483725    3.93978879818814   13.06706980465396
P        12.58636848424125    2.67443114537319   14.52884826421856
P        12.63999480363336    4.52612280576971   11.21162566739617
P        15.34571791571239    4.57188524969045   14.86059310073092
P        15.99441929952526    3.15574200995653   11.44551501739970
In       10.62816491360879    1.29611373414285   17.42957092932536
In       14.26344606072682    3.30351062501368   18.16535493776130
In       10.93988607361234    3.85895385282778   20.11451022658766
P        12.84034089465261    5.08323760467050   19.06197051344440
In       13.18815239059155    6.58241775069347    2.50306035339188
In       14.27293505353104    5.35007163725036    5.51222523263247
In       13.47970397014620    8.85893888810345    6.13888836400931
P        13.98278851925369    6.82810919139584    7.46754909821955
P        15.03650369009296   10.04364937131798    4.63258038951569
P        16.93180709290046    9.18876822186440    8.14821925511882
P        15.92322015266895    6.85361032818408    4.43852965889142
In       11.66595397363820    6.63077688310027   10.36760544101158
In       14.19572918019426    9.21197726460036   10.04071602408230
In       14.14758463480182    5.57029598981837   12.93184717434921
In       12.44077605097243    9.04707710388878   12.92399512944763
P        13.44136741710427    7.38276757123310   14.48562601752012
P        13.38469107285486   10.95363482939917   11.60010672855353
P        14.61986166633965   10.22557474426843   15.00141457511991
P        15.04798403538346    7.27981598865652   11.32807401530092
In       11.37824191935492    6.22346133178625   17.41601674507872
In       14.63274858816997    7.28695833998193   17.51409121876599
In       14.26760257988523    6.19902606671920   20.77634907430116
In       11.41785713825343    8.09485943647045   20.19540448537288
P        12.12905307911668    6.49300414186482   21.95160073496984
P        12.88580965890334    8.86169631771135   18.32678907118375
P        16.20313763502649    6.70231319149631   19.31765787599945
In       16.35383298709754   10.91418728944551    6.50378670117650
In       12.69299484709011   12.41377070512896    5.81021758006505
P        14.37744647070271   11.93982562250485    7.51901929392961
In       11.91710609774489   12.44534428290503   10.30228480736723
In       13.31828194121253   15.73609472223647   11.39769751714876
In       13.70469634075524   12.17849926588591   13.75272303216419
In        9.99680371121391   14.41982872469596   13.52758562385070
P        11.71282979671445   13.19543221983840   14.79177570284161
P        10.96043166744808   15.97837452021500   11.87913643563766
P        13.23476540791509   16.46801800462631   15.05416887072358
P        14.77650130848089   14.00253041578634   12.39259133785101
In       12.60767375591650   11.14973514284493   17.41013585456913
In       17.11529273606196   12.52406604106680   19.92224276271892
In       14.70233745940350    9.73039688348115   19.81722320127069
P        16.01997183428480   11.12510804217665   18.22022039014090
In       17.93618078687913    2.23706236021674   10.26092051789564
In       17.27969005984001    3.91277359912025   13.47571168421731
P        18.12915565152998    1.84498590076139   14.46927955188987
P        18.86225236346308    5.52274823356757   12.41320435872173
In       17.15586806685092    7.39324719001568    6.48867033668924
P        17.92676693356870    5.26583338709175    7.36561091523253
In       17.33674715339498    6.52765344731785   10.79333551569278
In       19.17476827780857   10.37113162362797   11.84449630574312
In       19.22595414320658    7.01053835589782   14.32485579539596
In       15.63623598353133    8.99622785745268   13.08926852616341
P        16.84719038654762    7.39705219234912   14.52013580003859
P        16.80355648741642   10.94202591657793   12.03624840192368
In       17.83955320437700    5.21532262434557   18.31115407138010
In       16.10308844704678   12.85936415000920   10.65046558109892
In       16.93297782446111   12.22667020937257   14.19359882274843
In       15.25301611179430   15.23878028589415   14.50592551649671
P        15.71798393141699   13.35758207631730   16.02560007007896
In       17.85906897816770    9.70306775243675   17.46381513420394
