96
 energy: -6.444096803823 gnorm: 0.000533375004 xtb: 6.4.1 (afa7bdf)
P         8.29034908440317    9.00918110749978    8.29061575474249
P        11.43683627417040    8.68110401580217   13.91285210004420
In       10.41508194498388   12.86327585866170    3.11929428128568
In        7.76413226455741   10.31014304343498    2.64110067075806
In        7.23379085486176   14.87469657046225    3.02963568131401
P         6.91176427556031   12.48330072906925    3.28273087416045
P         9.43893870911685   14.93060659515376    4.12300609402352
P        12.72382604787501   12.57773118617110    3.94321211559605
P        10.17887127635739   10.43454597354844    2.77014455216967
In        5.14247247155389   11.81531457796178    6.47261251216894
In       11.91921106645152   10.78568885750321    8.25026132313220
In        8.84577463106889   10.66276674794857    6.60000991468953
In        7.70768507051236   12.86968661410191    8.90818774214537
P         7.41826623651740   12.69459625800766    6.46418044994574
P        10.04539220591745   12.11487333108330    9.24221623709852
P        13.68581329379067   12.48922358735558    8.12185334583152
P        11.20577320974059   10.60070331382530    5.90709118076176
In        7.85738565773016    8.57759235501391   12.52982940012212
In       12.51211374889230   13.54661764782340   12.64582628606852
In       11.35895158685940    9.28984770236682   11.56403841116080
In        9.69163018324539   11.68942753225796   13.10300666086337
P         9.06634649918151   10.23382152084900   11.18702686205405
P        10.23035258232123   14.07422360868773   13.57683550675272
P        13.43839949698851   14.91403389935128   10.81617351601301
P        12.77916319491188   11.28183951708734   11.74174330919147
In       13.40392856797743   13.85978076305316   17.93946099082375
In       13.36219743341817   10.41803858062861   16.81278770783973
In       10.50861753477108   12.44216401524295   18.53001150424435
P        10.99589839758253   10.94411524106876   16.66072125540187
P        11.21108378746095   14.81702747460430   18.64489007240416
P        12.03479944955902   13.68813604857759   15.87503579908955
P        13.93595431219212   11.63757862381304   18.82797967638931
In       10.53103326990454   16.18667564017597    2.28168971401149
In       14.61866777534846   17.56799402759630    1.93626678641930
In       13.75934440002012   14.23731220238650    2.44711262603610
In       12.49596237603973   16.50136972754661   -0.86893330816822
P        11.97630914763517   14.81640812265195    0.83656239321245
P        13.02798972039552   18.56559512513141    0.33453520241853
P        16.44396264522469   18.92822530571335    2.86134157120134
P        13.38742347475212   16.34642409924714    3.70875658880983
In       10.64289876262970   13.69235657407496    7.42741013885847
In       14.61112286890462   17.94906823947706    6.47274048348040
In       14.04468297678157   14.62035096141054    6.95043540382338
In       11.39891282774905   17.08004971768813    6.87525678387739
P        11.91641297313890   14.94603129217583    5.69064612371125
P        12.48782499583750   18.68903919420249    5.31718732065640
P        15.35689367533984   20.14210199361133    5.58557839506481
P        14.29484926335233   16.53966001883351    8.49165161337044
In        8.54405353932854   14.80290738658014   11.90886113057211
In       12.44774822534502   19.22923673174106   10.51811421526541
In       11.36316686962354   16.23720833529124   10.84586229548533
In        8.83222668658592   18.96383025714479   10.33600204559922
P         8.99002215820995   16.51269020293807   10.18685200638282
P        10.56428605889097   20.54348252370274    9.53243650253298
P        14.75477189796801   18.42397203276943   10.83784178703742
P        11.43005349096168   18.09795511871740   12.49018708613854
In        9.58305957397782   15.57281388752474   16.93670398196489
In       13.28726685903034   19.26719941805496   15.94645894033374
In       12.62740464159727   16.02891619904766   15.26572401835649
In        9.82080470108561   18.92749313882892   15.97885896207638
P        10.26874736280668   16.75427612183089   14.85667431481409
P        11.40837401328145   20.21483536894386   14.57296541880192
P        15.57400007543214   19.53041575686723   16.86804322796445
P        12.47228681407874   17.37459221042049   17.32052702950146
In       11.56046492190372   19.77120123865919    1.87060725738204
In       16.68086504141466   24.48060223692451    2.78542997278691
In       15.26260824445549   21.02126834586376    2.32624510491884
In       12.93076953536568   23.37184734014774    2.24347465572898
P        12.97534188199982   21.15444542979869    3.33096594268357
P        14.92500496478045   24.20058296312385    1.13499054417614
P        16.11060774798522   22.51638098862734    4.11206249600987
In       11.50200954842382   20.71552073255799    6.33773539893874
In       17.83486015179717   21.75019752479413    7.33801358721049
In       14.53277918224756   20.94870150470989    7.78587980595360
In       13.86998082036067   23.95562684824210    6.66450527956865
P        12.46843314751534   22.34999987659302    7.92226345048068
P        16.31769817580566   23.68971743201939    6.92887382305432
P        19.76651384213181   22.49101813461246    8.60858994387824
P        16.62944119739174   20.22842269616880    8.85292556600974
In       11.00199388883412   22.03270283950051   11.47083675570608
In       18.17417433841159   19.80123277957023   12.08551756602451
In       14.89190953864923   19.77980121303474   12.88870608008931
In       14.58210496738499   22.56191635093318   11.02321070201270
P        13.10007720003128   21.52068455323372   12.69781635924886
P        16.91711447839615   21.86192566587356   11.47291693828120
P        20.41094908535923   20.69654956173495   12.37893117481660
P        16.96852910686843   19.57293032581632   14.21711395354242
In       11.34096903935064   22.03933360491626   16.26822397749131
In       17.76521018659245   21.34852033225518   19.25835957862439
In       14.41772320154837   19.77164295567126   19.03582552558613
In       14.68103316244523   22.68461470404218   17.23712395192031
P        12.77705890520280   21.44360688333539   18.18969888822912
P        17.10198029068899   22.44668139409712   17.20816611781743
P        15.84350057563429   20.92684432165653   20.66589520874925
In       16.73873711183003   24.94686195274885    8.97591127406043
In       17.27573283091463   23.20228621672669   13.47622052903694
