68
 energy: -4.473506558960 gnorm: 0.000148382118 xtb: 6.4.1 (afa7bdf)
In        3.57166588361671   11.59664254471958    5.05334759407614
In        3.49618498111370   15.25661490936763    4.75812029999292
In        0.75208178310047   13.27398834056902    3.17950815842813
P         2.67626949165017   11.84935784011435    2.79764915825966
P         1.76095636385929   15.50127157845027    3.01943514728221
P         2.45976043145492   13.49865138639472    6.18393818629385
P         2.71240847337619    9.57356470683970    6.09612457552329
In       -0.23877671242367   10.07459900411977    9.21425725463609
In        3.11303483466071   11.84160446035502    9.21061106882887
In        2.97578170423405   15.47649111343095    9.24669998621236
In       -0.16111775029980   13.71471696501356    8.89026914159388
P         0.99255326918807   11.73715586532474    7.90994050167906
P         1.06451019730967   15.48193733270585    7.64311494976655
P         2.46324575527643   13.61159427931627   10.81736859088363
P         3.37269795490501    9.69866284468962   10.32788195213333
In        1.09324922936352    9.82653911568777   14.27928875236578
In        4.14839202492360   11.85302269300938   13.43750553879633
In        3.82467596070887   15.68193449663619   13.71233077055122
In        0.79166322823157   13.55071078129694   14.11167554496990
P         1.76508829133521   11.66536782564272   12.81485140407155
P         1.53298681207920   15.48593839959419   12.74297701970383
P         4.34835779644667   13.67527486823193   15.01826479946710
In        0.36503181110248   17.46154401299113    3.47441462257827
In        3.65188878023363   18.98267347700388    4.62827360464166
In        4.39055121679986   22.75074833610012    4.99758237724823
In        1.35851470516940   21.75993954137043    3.18706943093999
P         1.83548609102939   19.36207570082856    3.00243938373745
P         3.62263242227063   22.53307201594466    2.67049833392700
P         3.11948826429090   20.92139887561396    6.08069762896476
P         2.58687413147196   17.21272651265888    6.00112713206723
In       -0.09231432383804   17.42869955949917    8.68419472616029
In        3.11208732223176   19.15747565643762    9.24265488989743
In        3.20373874029065   22.95821711701210    9.17206457468933
In        0.09065137285710   21.02444148827954    8.73452582733627
P         1.28206623279959   19.17655304078685    7.55568779432579
P         1.35865371382363   22.78233793018192    7.51248719632033
P         2.65874381740625   21.09970817894504   10.72120404121129
P         2.43051491965919   17.34647534715337   10.79617640695174
In        0.76166967033112   17.39910048453605   14.15132920831710
In        3.81621342970812   19.35032208742421   13.85029798870995
In        3.63828050928582   23.15635201259915   13.89597280604238
In        0.78180617559509   21.10789345061466   14.17896264609027
P         1.59970761531805   19.25739060415671   12.71490278555832
P         1.47815066603747   22.95706717713409   12.65970650754806
P         3.86018028062867   21.24278194192879   15.41335256605366
P         3.82320976353955   17.45302786939540   15.40816096631776
In        3.93321191882777   24.59218103583078    1.39711641790416
In        4.16704532639175   26.33754553053206    4.73639925947309
In        1.50797082878950   29.68715523859929    4.59711238399118
In        0.56224328273679   25.73420916379492    3.51282912009725
P         2.76804548977063   26.29327955022869    2.70371042114911
P         3.14065942391850   28.34428199325550    5.72685090259883
P         2.99353879388862   24.55580358432801    5.98749957499159
In       -0.00307811096532   24.62486366905868    8.48093499024726
In        3.12490124312943   26.47645683715947    8.99991582235072
In        1.72378716184193   30.19671088768577   10.82709294479516
In       -0.18199089682093   28.16719587206171    8.30760562014645
P         1.27840956751969   26.42933959325217    7.33301576014346
P        -0.35576841439476   28.97787948884284   10.58427734603656
P         3.41987836990920   28.71056395595820    9.95896848766900
P         2.41934062518552   24.78937939760643   10.66971158883259
In        0.43216427162733   24.83105774228031   13.90805953466959
In        4.02024415532890   26.72058316643306   13.32979606948489
In        1.20028883310990   28.26585376711432   14.53869148819010
P         1.61703968957287   26.65638076360631   12.71080614639344
P         2.61980617731631   28.07462134014808   16.47444127819490
P         4.84907834855789   28.97684775046039   13.64232428071839
P         3.41030158257345   25.23906590150694   15.18793672096762
