12
 energy: -0.365282056574 gnorm: 0.000163396508 xtb: 6.4.1 (afa7bdf)
P         0.81712640706338    1.73112439279275    8.11388322272127
P         4.94790081118631    2.83863123046440    7.61219446225028
In       -0.35431665578711   -0.66090355504162   11.59867981934835
In        2.97482904785689    3.74873812844188   10.98871395460384
In        3.86243154837278    0.79933992627357   12.99813452953795
In        0.50667445145536    3.26949814573139   14.00918331328988
P         2.14111739361859    1.56260854697163   14.51143715418033
P         0.91779220054858    4.53298111820710   11.99001007304881
P         4.70917373839095    4.84335403021947   14.65677010221416
P         4.27254196847547    1.71204327141829   10.79331661861968
In       -0.70343477850046   -0.64014719425014   16.73977476068485
In        2.71344886733134    3.06801695877059   18.40362198952154
