16
 energy: -0.928960723460 gnorm: 0.000482728353 xtb: 6.4.1 (afa7bdf)
In        3.86002733586822    1.12944832732040    4.40113622974859
In        4.26522556848430    5.94917219473338    4.49075591487177
P         3.85556027033068    3.57513753358967    4.12547244153269
P         5.90761801032784   -0.15800656300578    4.62886008111351
In        3.41432630626402    3.20452885368201    9.53260517181487
P         3.54204852061920    3.47798560655475    7.12497655436676
P         5.45859908929572    3.04557724790601   10.86776614190033
P         2.96783554193399    0.79241809005570    9.56789826681288
In        6.93327259390143    0.36571729164443    2.49372795388838
In        7.53804786697628    3.75649356883836    4.08802908497348
In        4.24446655856227    3.50606735445729    1.69183458286886
P         6.53464222067764    2.75379492936365    2.12861637726280
In        5.00856624709743    0.19219450263935    8.40737294578521
In        6.90713199904574    3.31336104383199    8.92053344115012
P         6.47273210077220    1.67389091088017    7.15464609650211
P         6.48411976983954    5.54261910752335    8.07208871538942
