148
 energy: -10.953887814667 gnorm: 0.000092631239 xtb: 6.4.1 (afa7bdf)
P        15.55972349826129   11.13350261742422    0.71128888301059
P        15.86585097214951   10.82598219992462    5.61472203053367
In       15.51083500475121   15.24554612103208    2.30966324290172
In       14.19285276836094   11.81185650136311    2.59358536407302
P        17.11519091234005   15.26057735328292    0.47569164481973
P        15.75553701226241   13.28751001067821    3.80495162521585
In       16.30084995870218   15.28273827700521    7.30687640050686
In       14.78522834139306   12.16968161129502    7.38451961180709
P        17.68253973919378   15.08035593189077    5.28329426018924
P        16.47900657507270   13.31688066188267    8.80266714864275
In       17.18865673846998    4.55099136374900    3.77466199788693
P        16.07631469358606    5.96172409824184    2.10111835220029
P        18.76526027252457    5.95082051777726    5.11822854704657
P        18.44543833512308    2.76294992942454    2.65731819304829
In       17.01666578501619    5.91241252683861    8.54924715974303
P        16.90944280516642    7.48732835053556    6.61871050067732
P        18.89755410643083    6.49600406788981   10.05818300007902
P        18.11677401052557    3.99475352438228    7.48946002140739
In       15.09731548139685    7.75042445328493    3.42169045026040
In       20.60784312648831    9.91044701600274    0.76216273730565
In       19.05224906401909    7.27841986441142    2.98511754752774
In       17.39244744999557    9.72028128883500    1.53992617243333
P        17.27588707115871    8.82770729875644    3.89331576155739
P        19.34541017600298   10.75766575281818    2.72783409210107
P        21.30314243543232   12.03590231995541   -0.33340968010427
P        20.95471893439648    7.49890195210473    1.32776494900711
In       15.50798503589889    8.91594743006623    8.08135274553837
In       20.49552831522346    9.99820526619030    5.77272969980948
In       19.01584406401181    8.53554338263294    8.65241513543919
In       17.95257000526722   11.70735663942296    6.64488276258362
P        17.38411192054261   10.43272991251624    8.71185679663064
P        20.19604872908308   11.46744003022499    7.76835329689771
P        21.54215939782555   12.00299451918814    4.54340620853352
P        20.60497186581850    7.70591900364726    6.88384915081950
In       17.87681150420451   12.77094750497305    2.59434118673011
In       23.19840643283423   16.54778853831371    1.94390577088545
In       21.11940031960643   13.90261841112604    1.28988807986029
In       18.78165115639132   16.50238397423249    1.78043015464581
P        19.53483044783048   14.54463672373693    3.10269626401066
P        21.01030616730499   17.23378694161095    1.05625331162174
P        24.63702132790426   15.61680457589735    0.17916272850743
P        22.70285132588658   14.43320773402497    3.14508139735277
In       18.95510834524147   13.14268689615804    9.20381300402953
In       22.97129636816314   16.23771701379856    7.09522598612026
In       20.98714033454549   13.84294095464980    6.14289124716869
In       19.21356064131773   16.76101108693359    6.27245831282159
P        19.86176417161121   15.09423028728758    7.97580479354238
P        21.46105745059682   17.08895119368681    5.35140844546763
P        24.70743633509132   15.76014605011771    5.38416681793428
P        23.05852039481893   13.78144083261964    7.55209882527866
In       19.74950716319540    1.14275403435809    3.91506699337024
In       23.52567411537109    5.12952014578609    3.17464035456750
In       22.39241562008191    2.27215662588539    1.56908278895864
In       20.65916219658698    4.55232091397383    4.30891333695971
P        21.87233617885665    2.40589437626857    3.97711085101567
P        22.26923019880429    6.35011353109546    4.96728028487393
P        25.33262139376750    6.68596019379989    2.50227844220329
P        21.86134067347295    4.68850117530596    1.36690171732248
In       19.96327986299286    2.45153149410604    7.76919495588699
In       24.40588515713615    6.41508876144104    7.81411889431314
In       23.46958943926554    3.01573076481533    8.91866411605209
In       21.12731165255599    5.52763625229503    9.53972352544340
P        21.73274008236103    4.15188306601106    7.55927719597979
P        23.19650999437017    6.83695178289152    9.94180924068704
P        25.13603237351016    8.35251292083204    6.41024592448877
P        25.51323391427672    4.23440681249843    8.21266015908349
In       22.28669036905505    8.20540374168782    3.30050590114764
In       27.37354325025137   10.89968736730671    1.05814851992530
In       24.66525130489367    8.73436891860858    1.22759679392443
In       23.65923346062195   11.71687453991847    0.39706510997666
P        23.23645356129678   10.38080702540216    2.48164251503849
P        25.89764972234421   12.84655541593738    0.57719048641973
P        28.50273274918287   11.61835859273908    3.19017309683456
P        26.51643798025147    9.37181975295523    2.82948903541313
In       22.22190474565679    8.64362615462671    8.55190767637746
In       27.95561169145842   10.98952733268710    6.24644678890707
In       25.44162954661753    9.98268126540354    8.26925606337574
In       23.44177102168647   10.90548389528964    5.73025082102592
P        23.08879145283794   10.93844977322705    8.17617173045791
P        25.80237513639162   11.34522075547688    5.04404877961989
P        29.71814045594673   12.78055225738611    6.32440783115783
P        27.94490464022802   10.08927511679397    8.57086707914755
In       24.98721474457740   13.49116105644858    2.78461276325933
In       30.82392391932502   16.83526494441294    2.61344857180752
In       28.79089171549881   13.99560863482951    2.45712986266330
In       26.61677650605237   16.36289493020904    1.46360599651494
P        26.79202477095289   15.01453004153989    3.56119453547432
P        28.98209072511783   16.87502193483443    0.98081145841817
P        33.13180251211052   17.13839493714178    3.39891966166460
P        30.52907790175031   14.82776694178557    4.07825364961578
In       25.34125445002468   13.08138477077658    6.82784544595527
In       30.14592775419774   16.01353126787555    7.65680911988767
In       28.59482563956490   13.32498649949166    8.47793980555815
In       26.42895001612282   16.32489652751574    7.10180219351835
P        26.37405954923785   14.40631422696963    8.65874604878798
P        28.46186388107714   15.62551893855991    5.86247308666546
P        32.08417897351979   14.84161555802281    6.67243803957267
P        30.31861729887358   14.61717004859243    9.71382108081103
In       23.49874411958618    5.38109475663688   -0.37168960873289
In       30.38121911232120    5.15612839065456    1.34086725169445
In       27.12531268806815    2.98942355950106    0.99346232016686
In       27.08701971090133    6.62920002207883    0.70382960038514
P        25.84663104721914    4.68521131213289   -0.23126056911572
P        28.38283836904289    5.81628474872252    2.68257959076210
P        31.51079168310903    5.87242133548231    3.46069138884528
P        29.44695491718594    2.88225987495629    1.81519108832082
In       24.83181132442557    3.39636874612691    5.97146048570059
In       29.73973961190009    5.01239227898595    7.01071824881318
In       27.91333254864812    2.56044223023348    5.50012292890557
In       26.71835022771602    6.62368093388218    5.52703225159548
P        26.54075315790201    4.37277696287139    4.44249823780072
P        27.66156403438772    6.18994756877877    7.76867987529938
P        31.19557299935366    5.96891689065652    8.78775989528359
P        29.79062419548773    4.00567527704334    4.70467334755365
In       28.77770544356196    8.27642585241546    3.03562589633749
In       33.99504477266754   10.71800378617038    3.15886226044771
In       32.67706727340249    7.66869204750937    2.20638660841733
In       30.66728212487330   11.09860533715340    2.06276272202266
P        30.58192274003131    8.71714949845239    1.38105909480500
P        31.96348570407456   11.79363060863194    4.07618182264627
P        33.67228264990271   10.92767747382790    0.73682725233028
P        33.79515408826311    8.48751962500009    4.27168495104441
In       29.12664929896031    8.20368380049723    7.40745153815873
In       33.38203567266159    9.66867050697691    9.45841372363285
In       32.53377881645379    7.32209725615139    7.21029299227764
In       31.13429968139649   10.82950213687429    6.98199031426932
P        30.99627660975970    8.65296640760473    5.78941941230485
P        30.92462193436900   10.11348473876812    9.32548067313359
P        34.34894151331911   10.57883029096165    7.36995869681977
P        34.44161253818485    7.51151543523317    8.79485939074296
In       32.45578196295509   13.87539364349759    2.77308615854428
In       35.27396024631571   12.75805999526183    0.54140247161194
In       34.96995115452767   15.79746001719019    4.24538425116656
P        34.94497196660757   13.88591733645684    2.69908110982445
In       31.45228776503319   12.43418833991336   10.14371204351508
In       35.75599938050541   12.11463022806379    8.63945739879341
In       33.43243801821723   14.92123550010403    8.70215739132521
P        33.89200013870513   12.90314848222503   10.04108942979320
In       31.30455179339060    1.87433204023972    0.56002026712313
In       33.37717857580933    4.29283553376318    2.99998562157770
P        33.15350739749822    3.44458736420475    0.71336142325677
P        35.48779053348557    5.42084489888993    3.52192406615056
In       31.31334850238218    2.32375807184626    5.75187535716728
In       32.80163323359743    4.08909083590138    8.54622946967505
P        31.21485995323209    2.24621044974449    8.18063977410672
P        34.07165441225670    4.58300863865795    6.49666709998104
In       36.04739437861499    7.78590462824947    3.53727376497455
In       35.82331809260924    6.00287459034304    7.44116875299746
