212
 energy: -15.509883468869 gnorm: 0.000551952537 xtb: 6.4.1 (afa7bdf)
P        11.26213267644588    6.64486053493352    4.62430887813868
In        8.57373385018459    4.03441975627659   13.61316626384277
P        10.61561011616236    5.33482148730937   13.15545275928784
P        10.92324653581306    5.15056307079178   18.86026433953183
In       11.09086874484457   11.55315829873112    2.73317056190885
P        12.96396811309407   12.59442567742858    1.55435481972151
P        11.19043987513368    9.24665030952288    3.55081104461792
In       12.02333578625541   10.45048997967937    7.65203842158922
In        9.83028826568957    7.62654767549566    6.41182928029672
In        7.84472395229717   10.69666632324299    7.43451046001512
P         9.28450966315697    9.91903166047762    5.62883523282072
P         9.91767892189839   11.48529579866688    8.51064233593889
P        13.81278641056298   11.48652020055493    6.22393467843980
P        11.34300436314784    8.13964847107953    8.33269045610305
In       11.50118853673277   10.57607196054292   12.13388543644939
In        9.60617064170155    7.33822246203204   12.01285282983885
In        8.04577220537131   10.30746139977961   11.93318031985535
P         9.50833940093277    9.15839049481474   10.30009307361220
P         9.58390487580540   11.85829063813774   13.11730581121843
P        13.56895889454712   11.24395610580046   10.91852146879961
P        11.13109950457648    8.59000293074435   13.58848944348691
In       12.11934643984620    9.93872864213619   16.37451959003328
In       10.27953716215085    7.42344149276783   18.18233620152953
In        8.34048609189893    8.13600211091392   15.52321993244479
P        10.26893534852531    6.61121442714444   15.83738452732286
P         9.74578567968890   10.17462241541867   15.64128855115959
P        13.56192416021815   11.73254098805440   15.36370327677296
P        12.39312930698980    8.71539683296490   18.54351101297587
In       11.55230578769674   12.69714714737683   22.14220917526333
P        13.31924319139458   13.70264118540778   20.74550099089370
P        11.74993036626023   10.88035721155471   20.51237578952061
In       12.83869003029702   14.89700360431897    2.38427139297443
P        14.63404940378607   15.54885035135743    3.92341859896301
In       10.27657840763125   13.50288274274820    7.12297947779409
In       14.98855136241883   16.63205822151438    7.40801594285504
In       13.68023932310844   13.38458270658697    7.84648052800784
In       11.32861557532204   16.90995601570944    7.94038855764438
P        11.73848934205568   14.62860390528219    8.78115158764638
P        12.87737014012058   16.39327120340190    6.13090524090060
P        16.72982348067049   16.17101040790171    5.70500100163604
P        15.43365397896083   14.75489570036690    8.97915046638207
In        9.52807090406891   13.66282592985830   11.42637766950439
In       15.30509599674618   16.59383885561658   12.47171954362948
In       13.18214107505346   13.23320039795177   12.37787144081348
In       11.76836440286010   16.65995756647523   12.29689763411776
P        11.12032674837305   14.42570963491846   13.17155958561175
P        13.57443484207223   15.91003368688016   10.79569862235762
P        17.49931254723696   16.60316574471373   13.64823007995990
P        14.85238558648733   14.48151846245263   13.73287713806675
In        9.11733760212889   11.71091956839038   17.45782622866574
In       14.13347336185981   16.21097195558397   17.26409851772173
In       13.22551182714759   12.82297928635800   17.56436904788868
In       10.61602058121480   15.30131637127787   16.82869045556074
P        10.86709199238808   13.27281040195933   18.19877695892266
P        12.68012221802341   15.25182424290872   15.48221367850055
P        15.98885052135163   17.46296428171906   16.24376235325694
P        15.07824770476200   14.23752820533485   18.45837514283311
In       13.96399564070130   15.99504850991492   21.39078033372027
P        16.33648636560258   16.47605388229525   21.40218221226848
In       15.35358420369168    5.67342383638823    1.35347204735770
P        13.42772118260572    6.06594083190479    2.80470482982035
P        17.25104556512213    7.11162722919511    1.96029445946294
In       14.74427419128832    4.01380389339815    7.28447023155455
In       13.48008082509044    1.33901990946052    5.52706830150051
In       11.62359671807705    4.31543721304418    5.40816641118019
P        13.56867165555027    3.40005923990998    4.20942762744115
P        12.51085615822293    5.10404673123040    7.58446825731861
P        16.66560784788338    5.22298759697188    6.27141347375549
P        14.60038854192162    1.55504906836411    7.72925288538980
In       14.53106538934756    4.58758923870948   11.30404445130858
In       12.50865406524821    1.04440537925322   11.12855037320031
In       11.21149749991762    4.46980065109703   10.87702354489947
P        12.44844027697120    2.83956908548296    9.45419321039560
P        12.92417434991822    6.17530930537140   10.14770438765813
P        16.87629530217093    4.96347475685175   10.51065866996461
P        14.35754197487417    2.26655714691747   12.21795049921877
In       15.11867595716087    4.36610804519885   15.24510246626831
In       13.28084021845675    1.22799696722278   15.43500689324639
In       11.78353510124159    3.92844204490046   16.90589435430780
P        12.05940911404337    3.16664670061121   14.55615423823510
P        14.14244700606110    4.46015359674230   17.50881354435768
P        17.13689216532688    5.78729162055535   14.90818222814726
P        15.59303998736375    1.94641171201498   14.95178634928288
In       15.23456911328779    6.14268787417595   20.83285656220295
P        13.15472436911434    7.31852812474304   21.25241900031873
P        17.34333574023400    7.04767806557198   19.93396174565718
In       12.99683673453991    8.39441361188764    2.05100477172859
In       17.99896324373030   11.72285109935678    3.84679821341889
In       16.47828488788571    8.09463807470999    4.08680837203783
In       14.84004511880206   11.26239479610343    2.47704866352297
P        14.32874386894649    9.32646532665084    3.93969207862432
P        15.77806498877497   12.81765007239072    4.17133573356306
P        20.20437712714557   12.87632269855031    4.06238224490206
P        18.07209478086127    9.63700836012620    5.21064581447004
In       13.22465550040056    7.38585267433522    6.84315951794982
In       18.85245300801609   10.76511439195208    8.84727227473770
In       16.49979745554473    7.06881541656204    7.94441558968615
In       15.51928366088256   10.26957953621108    7.57441830227085
P        14.50179142250911    8.33644971900106    8.78199740089835
P        16.59059618651969   11.73084569034363    9.26368976516154
P        19.71413190777913   11.61866091423037    6.66636281640954
P        18.17573553905459    8.40447559762863    9.22987559813172
In       12.90693166330385    7.35556458595625   12.33348793485269
In       18.72101814744973   10.56015236566918   12.37956441732835
In       16.93740943214023    7.09399867379905   11.81699542574472
In       15.10379185395651    9.93865131805872   12.36127322515424
P        15.11334741426949    7.66917462820108   13.40146009397880
P        16.69487160934618   11.40498822876398   13.56109116022924
P        21.04290298065564   10.45045096499775   11.47438135871829
P        18.21606247530934    8.40482731650453   13.51363124044540
In       13.42934070213634    6.85044058494457   17.16678058328286
In       19.10242565541672   10.93101981683498   16.20333456358020
In       17.24328066743513    7.51442510632614   16.66442706990524
In       15.45340159754750   10.45504052169641   16.39112201385477
P        15.25869169318988    8.41777482115875   17.82931870125610
P        17.18114219259930   11.89774048260617   17.47303209302196
P        20.71311405665159   12.61557422453247   15.26824580104913
P        18.61640646764042    9.16422128533593   17.90379083254482
In       13.71771812311571    9.70967475687425   21.44645268187628
In       19.57322559406355   12.04977174209330   21.09132360192347
In       17.21048729202999    9.36047490074418   20.89652047667381
In       15.50432969761960   12.59356327311025   21.29742326499946
P        15.35943625539565   10.61592258157088   19.78290104456822
P        17.61900795008653   13.27425991130126   20.11788101090956
P        21.90836801977638   12.19599956722864   20.16634248039476
P        18.29401338469305   10.66246354962841   22.70275669382810
In       16.44329420494998   14.55940249499206    2.49895048367900
In       20.15014383471016   14.37226928029529    2.08612501378115
P        18.50926089335325   15.32424456565764    3.66830181011941
In       17.05957731346480   13.49864398477388    7.55883192323746
In       22.49596475118613   16.77769920596582    7.07021269671130
In       20.70849481691094   13.62070562431877    7.80616774155523
In       18.75477684265480   16.68008984056091    7.03558041828349
P        18.77279520528250   14.87513324362718    8.72426607809932
P        20.67597336547228   16.20092075260282    5.55451611764903
P        22.90868441990359   14.67965540369094    8.30512749690254
In       16.63216787656224   13.52627190342215   12.25445008320676
In       22.85322592945155   16.46809372186509   11.91911761955340
In       20.99895136289717   12.94218931046695   11.86990832786654
In       19.07744724923766   16.02217658334508   11.84240927698326
P        18.97576621033856   13.82389829039049   13.03245526752746
P        21.05965163806233   15.77708253224009   10.37911959712777
P        22.15183391350226   14.60129622992125   13.39118466621099
In       16.73307441471102   14.19521571625241   16.58047874064196
In       22.18195312228477   16.54484405284469   16.36534231112541
In       20.00866083017088   13.93782467794538   17.29337009157491
In       18.41922281385788   17.43934161025726   16.67611750911788
P        18.21330749159798   15.46004576427484   18.14410099232980
P        20.06926777590344   16.44503626352657   15.12575772335739
P        22.21583952621521   14.76268532350367   18.06224971556377
In       17.96957657867205   14.77776607127454   22.09306564851394
In       22.18036755704100   14.23016408697359   21.57453391008291
P        20.24754425855582   14.61436221782971   22.99929816883712
In       19.02671270832236    5.48010143619378    2.41576753334971
P        20.04057993702296    6.29761808596584    4.47649135398082
In       16.59690908927173    0.45613029117294    6.78457703026613
In       21.73204652769048    4.39347720882403    7.30867439558991
In       20.44178160505675    1.21027826098753    6.23965213693334
In       18.17240368754611    3.82527546466051    7.66282987258727
P        18.60193386951674    1.38046942054462    7.86571131105476
P        19.91941859858754    5.17051180088770    8.83433069609274
P        23.94709571905850    5.44117295507591    7.47053904058774
P        20.41333583288477    3.51007221589309    5.40631613040304
In       16.20057943210502    1.13206974839039   11.02269360198534
In       21.50263410554158    4.12186890618308   11.78935457574144
In       19.90867037386706    0.66533353466179   11.54417906458975
In       17.82380313569328    3.66242444567868   12.40042816239928
P        17.88877324229371    1.21659253628154   12.83390144935755
P        19.75246891999741    4.86919084159003   13.35629732465564
P        22.10620454896104    6.21163530193429   10.59173345694962
P        20.10835300553182    2.73799955085779   10.25567612520485
In       16.46717417269617    1.78986256541539   17.25803081156493
In       21.91788699978281    4.73110889246391   16.80055334294247
In       19.14762902612527    3.08866831366855   19.33181274934507
In       18.51606364455789    4.42666247764670   16.47872618628680
P        16.99462471585380    3.91961924694414   18.39924306469202
P        19.98612848357348    5.87111961824928   17.88797008413876
P        23.31788242301042    6.19018847797001   18.18632373388554
P        20.96737505554620    2.67281782965548   17.75789261606061
In       19.08607349512508    6.19577249226390   21.46875609222411
P        20.45038815424061    8.14031364470026   20.91989499038515
In       19.86947116607089    8.66050882812980    3.79468156896748
In       22.21046624546763   11.58538352664250    3.43351803192091
P        22.13176600791806    9.20076598855223    2.99408783451613
In       19.90960816944039    7.42434047765076    7.75591632910433
In       25.72134362791109    9.97332090353592    7.49100749145769
In       23.11392195550690    7.57352788689944    6.58601424799525
In       21.97610703522757   10.66823717019822    7.28779573532972
P        21.97652727955651    8.55240950201891    8.59085726639323
P        24.05331410282853   11.58502230894469    8.35791597613457
P        24.38396313180306    9.40935836236836    5.53389387181805
In       20.36795903953125    7.24928715281886   13.03755445732028
In       25.64280901696858   10.30799794167154   12.14834003129261
In       23.79975419239025    7.41718282555120   11.93689795109707
In       22.33438978613870   10.05115808363611   13.54221356771749
P        22.59106145490057    7.63513524027995   14.08608687391625
P        24.39651332410907   11.37807514997775   13.99256820287459
P        23.95130558420934    9.48867841413241   10.55530115835696
In       20.68927895080095    8.07907182575769   16.96456260267928
In       26.24891323784239   10.80337130366174   17.15586700698460
In       23.64538321297680    8.62342686578447   18.26380050689208
In       22.41726852617828   11.59716782104593   16.83217197280787
P        21.50171487139528    9.93238569035248   18.46025013815168
P        24.36298448208113   11.76610201867578   18.42196843739635
P        24.72123188093293    9.19958407402316   16.10706337828685
In       20.34606023173702    9.33230265632932   23.06392771923803
In       23.30044596133173   10.78711149256440   21.66699115393113
P        22.00306700686333   11.02319010027851   23.70052901149153
In       24.35062025653481   13.43618188728442    6.73839998554740
In       24.16580110378198   13.37057618012589   12.54181102275205
P        25.57898522144642   13.87613542601270   10.64125406393273
In       24.60733328366975   14.21445652945377   18.20681366716591
