104
 energy: -7.241877897275 gnorm: 0.000646916982 xtb: 6.4.1 (afa7bdf)
In        6.63376020069820    8.17694065682921    4.84403507076069
P         6.81689848109848    5.78173111992637    5.30624923789907
In        5.60834023546195    2.40061277513179   11.80806255311088
In        5.87315439904572    6.34304487899625   10.50859816587801
P         4.93807793142745    6.04741895801371    8.28892236444341
P         7.05667368268941    4.30236132478115   11.32740687932789
P         8.05712437320577   10.17286080934383    4.56522026521664
In        5.39207342630035   10.60646504117617   10.10133325512792
P         6.21536678764289   12.68219217631849    9.14552621466339
P         6.80613019646706    8.65379956129138   10.64013823229019
In        9.29663718880027    3.03585759833545    5.18609423897649
In       10.13371782231098    7.74422053348224    4.63086804271338
In        7.74675565995744    5.40896233402160    3.06596914440059
P         8.32149454090493    3.01768299307974    2.93785662275617
P         8.94379816360277    7.51037328670435    2.47230287136274
P        10.25839830485846    5.32632136965913    5.19838670711798
P        10.21673833387688    0.88089702661324    5.86526824457598
In        7.36435536377145   -0.58514571230554    9.26186584267198
In        9.46017926525244    1.91340509718893   11.22464082012167
In        9.32431440301277    6.40846209728581   10.40492796025906
In        7.55766490340206    3.83686676101463    8.93561384754123
P         8.50505285261956    1.53888774001548    8.97971927328164
P         8.41230565376560    6.03633318638258    8.13490883015884
P        10.31843002994879    4.23790325629632   11.09059464878326
P        10.81011116244544   -0.07173781083399   11.74487711995986
In       11.15889006854819    1.04422673905050   17.00873416669091
In       10.61780843061250    5.40092458522312   16.19363095320308
In        8.30181369304850    2.76308548764068   14.92432887575899
P         9.59555306387326    0.71681724119162   15.16980472095542
P         9.17473024057874    4.95765175995608   14.21078418586766
P        11.94251329131405    3.33493803107796   16.58439477718637
In        8.16224083413839    9.84351769582427    2.12209651364247
In       10.80026273019438   11.72200908476580    3.62007980071175
In       10.14622828358820   15.45199390122668    3.12014146107751
P         9.82045612870055   11.50469351741870    1.38702865225407
P        11.87842733357478   13.94969097917793    3.92993526595808
P        11.81834115869854    9.60118626848274    4.46768739045797
In        7.52594799058843    8.35989844900983    8.27831932723693
In        9.01870343832692   10.90625336004074    9.79241884300760
In        9.60042403606576   15.52204166479026    8.87811246174750
In        7.63553359632790   12.84023745948686    7.15461084971824
P         8.47730378158610   10.50513297506402    7.40049736753315
P         8.83068909592661   14.93300944283609    6.64786321496708
P         9.98235898862785   13.15655908959799    9.41906369259169
P        10.10856526055232    8.77536593187118   10.49020572301125
In        7.77188626518348    6.98584172023233   14.11166276402465
In        9.90400335808849    9.66062737698205   15.64627129014596
In        7.24362100673174   11.30742417254742   13.56807727729562
P         8.60088386970810    9.24478990723655   13.56289470595505
P         7.59805668501345   13.48463809016056   12.59712464020645
P        10.28616699082776   12.07669341888393   15.43557086565730
P        11.45895474878269    7.75534709758610   16.09349390278618
In       13.23748532426226    2.90255970549583    4.75240054949456
In       13.50314132123781    6.69766006199889    4.86025662549367
In       11.02046127193580    4.94128516892725    2.86091868171424
P        11.73454699970220    2.58354575351625    2.87956091240314
P        12.75104297888875    6.68024520732909    2.51173637880965
P        14.29488092600998    4.66814203359780    6.05823972047940
In       11.45740222598613   -0.61942554971264    9.46571802079287
In       13.29293155773522    2.20544297107062   10.46936203646393
In       12.71699974995841    6.29520396995541   10.20551262289837
In       10.86867241215619    3.78429825012444    8.71009864758548
P        11.96824349913540    1.57271426970420    8.47241707985517
P        11.69547086674071    6.00796870388547    7.96624843727705
P        14.18640068129696    4.45818643373625   11.06529703705569
P        15.01666251749068    0.50987382999100   10.74069807472121
In       13.00110989993038   -1.38135356379921   14.40282235585346
In       15.10862422591935    1.83201552610210   14.96276943424057
In       13.85199683762246    5.82835782950834   15.21394623548797
In       11.80590672328120    2.89217526841094   14.15589541037022
P        13.23927988728786    0.92116762066669   13.65319329653551
P        12.32852601566144    5.17992194720123   13.35576111190643
P        15.70958130797549    4.18505395750475   15.25572457567448
In       11.89287483651245    8.96291253721378    2.05156579942270
In       14.79341065952674   10.31361933469155    3.25031867737637
In       15.90549307251783   13.61526551378387    5.22731841009966
In       13.31060283505287   13.35495174998257    2.00818855373063
P        13.23445366314527   10.96406513354064    1.43552334134649
P        14.15704178768002   11.98225121762878    4.94604387636699
P        15.18745712721115    8.50140624316019    4.86974427551550
In       10.93206810684852    8.37118415359131    8.18621460475618
In       12.54185237416724   10.91827612885768    9.64129344989710
In       13.51352467646579   14.58698945961875    9.24762276198495
In       10.99193296234282   12.59825562533339    7.22570296122434
P        12.10895879070130   10.35591908260592    7.24540664701229
P        12.68938872294249   14.36323365852385    6.98156597411742
P        14.05699194734144   12.63511357857398   10.63708490739519
P        13.39763194048407    8.69473510434590   10.35438142021384
In       11.35316995569096    7.46194631642852   13.62762927866345
In       13.21256287001752   10.50336940925356   14.89026478262757
In       10.72649081356144   11.87558848954408   13.03298055821437
P        11.99847024064384    9.74132310026883   12.87396104441353
P        11.79790017197445   13.99190281068878   12.46806411481623
P        14.24894970052934    8.25839098125191   14.84052316280892
In       17.69106812372806    7.48458897822503    9.14363624379623
In       15.75211156737672    4.18166757361093    9.15351839726717
P        15.52288759049137    2.21811837140188    7.74013092437653
P        15.98946479575461    6.29816363921621    7.84411821400183
In       16.82933340171508    5.19948530336128   13.32514151483873
P        15.36761544602899    6.83027167775088   12.20354611307164
In       14.33793208603561    8.15927999397259    8.11393172605012
In       15.96736176834795   11.56055897420632    9.52592208360292
P        15.56551225393356   10.21787463603671    7.55248995982431
In       16.17055074884383    8.82217932203142   13.39248883325146
