100
 energy: -6.762774966257 gnorm: 0.000111722762 xtb: 6.4.1 (afa7bdf)
In        5.51747390598009    7.98470192864554    4.10009919649625
In        2.45981729720358    2.73421108563469   10.71511429652013
In        3.02656618173197    6.37771476162355    9.83418623300473
In        3.17376292184259    3.95415932996561    6.41459033212222
P         3.63479570683474    6.12564626428961    7.42783523574897
P         4.02974000315060    4.54180633296646   11.19259112035010
In        4.15558967796987    3.76478386817354   17.34793992339882
In        3.13584350451202    7.15228251632797   16.42763400475776
In        1.31604829617408    4.81690634128277   14.19664261614920
P         2.45511687676395    3.28981026023096   15.68890203178394
P         2.35104069201617    7.04204818202767   14.07462952025711
P         5.25982959458182    5.85448244935055   16.60314096701880
P         2.41282013873076    5.52411562007671   20.21793375976108
In        3.83584146756457   11.70420555081391    4.36929909618138
In        4.46967678500398   15.78995488117400    4.55778946883591
P         5.16477191042284   13.55196068324262    5.31763026435688
P         5.15090126148955    9.95648790687418    5.42398010110772
In        2.16775707804156    7.96074266949142    6.67884797788583
In        2.67138562940144   10.11352178600076   10.31272709148166
In        2.64385342213648   13.57303105233279    9.90683597292023
In        1.01729712462653   11.96197672865720    7.09558523798111
P         2.39256747289107   10.08405698441350    7.87160480869026
P         2.77749712856720   13.66702156089701    7.42687046805737
P         4.18114089275736   11.96279680425153   11.07115126842882
P         4.13651921518816    8.24241557164808   11.07556292716568
In        1.12521082692629    9.12661883398143   13.63779356661212
In        2.92169313491438   11.24005525522092   15.98664261358231
In        3.04795193218995   14.68305000219838   16.10346527385922
In        1.02747111017118   13.25266604870162   13.30292979496604
P         2.41471236297376   11.23139646955632   13.56102757713935
P         2.83384445719237   14.91164787358870   13.62381195354130
P         4.68191573546476   12.88248206809182   16.63002715994313
P         4.36226727833314    9.30511607367445   16.56223076092534
In        1.87284751376330    7.84400963964295   19.91399846090721
In        4.63040603229920   10.29320254926330   21.59966520424733
In        2.00816833082145   11.74405718995380   19.52364602597525
P         3.41754228705609    9.72128499366132   19.53964868864475
P         3.59602605200243   13.53552425652584   19.71326812917496
P         6.38256308769866   11.96024544818399   21.64761876375365
P         3.99103924205947   18.00918801855332    5.34098937524418
In        1.52285006918026   15.77026416559249    7.16834509152422
In        2.68697135371642   17.52356737256175   10.80314435593047
P         1.60101705867845   17.69134092749154    8.63066521334980
P         4.02747473273929   19.55000126413278   11.19067001680941
P         4.03179749289255   15.43651875882905   10.80817485438131
In        1.94751173218796   17.16172359499886   14.21162008329453
In        4.06422689460586   18.96457982876328   16.59625754253696
P         3.05522391868114   19.33628022378427   14.39174745084168
P         6.38116714507959   19.77199738556589   16.71199750073219
P         4.62843701007676   16.57282909386693   16.34464426689836
In        8.81019761798797    6.05752832224948    5.92885904347986
In        8.71929572346002    3.14664856259207   10.46842562348621
In        8.26919420614565    6.82434716061458   10.12243192397487
In        5.52586688463996    4.16300896465782    9.23563053144209
P         7.32579045944259    2.63007958979928    8.55235882307233
P         6.29138691939619    6.44833512301779    8.68043306569795
P         7.52073053731359    4.96340731382000   11.59930907484389
In        7.93253489633884    6.28156199044457   14.62853517451123
In        4.98839719498817    5.06686144669293   14.26968449498827
P         5.79337002031766    2.83955922776110   13.66752053404678
P         6.10002878013751    6.96463878239537   13.04754380696078
P         7.98184896869644    4.46100088143283   16.25117911489376
P         5.43441365247680    7.12209956846624   19.68685180057831
In        9.47098653478444   10.28681353666510    5.48119743387122
In       10.03097297756710   14.38848254644846    6.18417585262631
In        7.10266722789810   13.19454118689362    3.82813986511048
P         8.32271579843063   11.12705482307197    3.49518565602831
P         8.96715805078218   12.31477089809557    6.77895084720291
P         8.47385183914279    8.34271998042171    6.60482993731387
In        5.29750988165976    8.70541200774894    8.91903882043280
In        8.35486887955025   10.58783175848000    9.95901950177111
In        7.96886613817422   14.69184552324048    9.84727038422627
In        5.54124722843576   12.29465068769381    9.00466510541369
P         6.85228242781912   10.42217090597171    7.97890551230566
P         6.60655589145159   14.23264386914273    7.83565357761605
P         7.88442369133124   12.64965051608278   11.23062971688072
P         7.39984260810546    8.79344932149924   11.37885749695855
In        5.02313642744783    8.94597180870978   14.20149653552180
In        8.00273034085229   10.29930709666371   14.64703713291119
In        8.20177104508194   14.44793434727356   14.47676205732914
In        5.34006660502013   12.80112349998249   14.24519499399251
P         6.20348316292070   10.81408535248920   12.98317168621768
P         6.26324829328127   14.73450250032734   12.92091714991635
P         8.00267865034917   12.44259940167341   15.92221499089153
P         7.70048197192930    8.27906928547590   16.05206960786328
In        7.36553132870463    8.54445789720580   19.53566626345046
In        7.33519055574993   12.39614395057340   19.44777286824863
P         7.55577400495894   10.42088097092029   17.96767943174621
P         7.38171055654457   14.42067123641543   18.02070122084469
In        5.00428082889642   15.98019792538875    8.59567810066836
In        7.94634254402676   18.33879428737479    9.46985879414237
In        4.65674227621157   19.87133671864345    8.86299367187870
P         6.07821460008818   18.11880837059866    7.88996229430736
P         7.21456246758941   16.67976131144755   11.12233033604426
In        5.33129340859482   16.80650348853856   13.99418110702828
In        8.47350393885988   18.16570138920395   14.26645966748782
In        6.13165742782492   20.71234095248798   14.48246842637905
P         6.47071591176958   18.79449653003588   12.95688364026088
P         7.93051130714620   16.44827778414375   15.91841434526717
In        6.83525133231268   16.11215094229179   19.66564931272065
