222
 energy: -16.554577373945 gnorm: 0.000098590802 xtb: 6.4.1 (afa7bdf)
P        15.11386440747662   13.01709331990498    0.85700043039115
P        15.46256082078635   11.13175114892791    5.87656210101467
P        15.80753872689666   10.46670815607385   10.68184087166737
In       15.99454711872426   15.81342859695234    2.99374459778142
In       13.99240179299203   12.85142647980704    3.01681944019308
P        17.64091506550700   14.89685482612919    1.45040541817727
P        15.83025650961554   13.78192168512475    4.38020968565413
In       15.94903163778259   15.61839023912751    7.87423283101784
In       14.38117626406264   12.22323053111266    7.77938227105103
P        17.69803158217116   15.45271016921358    6.16497702077838
P        15.88983783655788   13.54326028593947    9.19838838871581
In       16.19097615397403   15.22532237629635   12.88998792598807
In       14.58507589853936   11.64119964884548   12.44586927861294
P        17.78631636316227   15.20880475218737   11.02662658743844
P        16.32913564104352   12.88741466856475   13.65787966919303
In       15.71384196098517    5.26074526349858    2.29720611789884
P        14.50288722207907    7.17900462118373    1.36257749469721
P        17.64980714209157    6.25566083162696    3.50981673107936
P        16.49146537525905    4.29144911203614    0.18466335993642
In       16.53140994871338    5.37236296908136    7.03816876490491
P        16.27923276888767    7.44133581620390    5.67407323476572
P        18.59403187410410    5.52887298986110    8.43646402038066
P        17.29960310532856    3.64778363303961    5.45473763301284
In       17.04277586002014    4.53967669359043   11.86036317184089
P        17.03401039836075    6.65356615070593   10.56597919792844
P        18.90099732274681    5.28982532119759   13.29413327088544
P        17.86556597655178    3.00715273023133   10.12836805488830
In       14.18975994010174    8.87019598353267    3.07263050289828
In       19.47625174166397   10.96090093394541    0.05923218703771
In       17.68489630942995    8.14729063361904    1.86931090786738
In       16.64422632389683   11.29572814397931    1.73196536326013
P        16.50680374973980    9.59197411856134    3.57854681821317
P        19.02338022884153   11.05734731438069    2.50153243925240
P        21.20001383211238   12.75415300902388    0.18797180671795
P        19.29318190813399    8.47665732422399   -0.02940976525763
In       15.17355841482459    8.47316159447132    7.63292319030927
In       20.76825244125704   11.00997856218085    5.77451205319507
In       19.03121877930965    7.68487499172014    7.24435009990059
In       17.67093318031998   10.54259416437992    6.87052114559076
P        17.38092235485552    8.86545790667396    8.71720539836082
P        19.81682186247069   11.13956569016976    8.04974205809871
P        22.58210733078185   12.70852588144989    5.34349504284365
P        20.17827430553291    8.63856866521220    5.23831745199752
In       15.74520880472512    7.66639795175990   12.41095299481356
In       20.89315025779980   10.63083506683811   11.06277374518304
In       19.25202057243347    7.69697158932064   12.76850138258304
In       17.86841448400847   10.60704332684297   12.05255734571890
P        17.33586156327873    8.92901466500567   13.79739117744580
P        20.00012010269432   10.94427557997855   13.34179727114667
P        22.23703620661281   12.54538685851216   10.20597779996807
P        20.22150593306490    8.29189419136680   10.53595020094039
In       18.12352172366750   12.80799326330443    4.07994677815997
In       22.98268414068108   17.29649866466471    2.24766956251190
In       21.34911366105145   13.76000078119912    2.44718219267872
In       19.47144607804585   16.34825698119878    2.23112167922671
P        19.72818708238362   14.70101603253552    4.08340547970850
P        21.32358262954311   16.49807045661598    0.62475630101887
P        25.10867189097821   17.37955154414135    1.04076317800059
P        22.96848417566951   15.25251845249787    3.64016709621924
In       18.24091224092555   12.76745428450530    9.06566070802324
In       23.47767757422280   16.99235369584724    7.41936422861092
In       21.46536150428271   14.06821861240198    7.13396834928884
In       19.36196613721308   16.79196008193217    7.41012883898626
P        19.70060106262202   14.74969279244281    8.78436841095736
P        21.40135170464596   17.18453816906542    6.10537649852458
P        25.01212909897250   16.14427053252529    5.66297196812886
P        23.14964129920429   14.92328046314312    8.79877036591402
In       18.67680599681755   12.73935667111505   14.44262716639944
In       23.15006400318896   16.71478119398673   12.37134865136322
In       21.90502163123000   13.53358702606235   12.49200332804049
In       19.49654968409775   16.50957384744914   12.28329108186718
P        20.09502977285011   14.65093275659052   13.78393323223178
P        21.38529446519159   16.03930952245389   10.75016397631867
P        24.92033786401133   15.92199219105324   10.81763903821078
P        23.67742348284834   14.72807122555652   13.75345907146185
In       17.96979849169755    5.42752291679932   -1.36594142376770
In       23.37185407591596    5.39071941716255    2.12650287968178
In       21.28045687809895    3.28673681339124    0.17666570732289
In       19.16660895087107    5.04676772981758    1.95934635036315
P        20.17524976981701    5.47349180295994   -0.25899607992206
P        21.15957040403532    6.02873587729077    3.07236785982791
P        24.43174597691673    6.49115761992185    4.09471963480248
P        22.86026443960419    2.95606029267799    2.07972484966767
In       19.12389281403514    2.49029461967526    4.30633398594544
In       23.66399318115576    4.43498450441828    6.99719438019567
In       21.86608094906207    1.69223878011410    6.14599050326387
In       20.17083754247691    4.62500417818721    6.70151418553599
P        21.31519317763789    3.64975496483610    4.68707590742364
P        21.88699182450502    5.85481067574123    8.03546203801221
P        24.99106396867278    5.89920266814432    8.52880822959037
P        23.57214605084663    2.11504438352645    7.92284849943342
In       20.00275974071866    2.05879017666931    9.47530443801348
In       24.24852712415878    5.13669272966129   11.64269584103195
In       22.70562644018694    1.95023324648897   11.69944538755744
In       20.71156159426546    4.86521797947094   11.64524187620297
P        21.96445675530690    3.53578640329347    9.92763780500395
P        22.40451909322814    5.96853921499134   13.08922128301231
P        25.64900764724037    7.20876055827943   11.36570184576389
P        24.51768923856509    3.04788664611097   12.95875076290256
In       21.13345098721763    7.98372075295361    1.54232843004721
In       26.14268194940874   10.80838637725758    0.98364108869453
In       23.98871407776006    8.80892371146204    3.32921360933988
In       22.82965214867580   11.07940182363330    1.05610936200190
P        21.73897317318218    9.91639987491975    2.98583706040432
P        24.59959881149473   11.79112914333564    2.67778398227165
P        28.55046125649483   11.40756328130305    0.97973762718109
P        25.36256555943650    8.47565844216485    1.29882375391170
In       22.17441887943263    7.72801176062175    6.42307915359077
In       27.43017735488485   10.80030295729994    5.85100155260504
In       24.91107574724704    8.36862096766644    8.16964566860276
In       24.00536560344502   10.87184108003581    6.28534953114575
P        22.69871768077000    9.59200944371451    7.98860617858674
P        25.94989447474931   11.45580595758624    7.74548788405032
P        29.50961266578045   12.25573211148613    5.90302184281364
P        26.45439375560763    8.51155695703912    6.21707435467900
In       22.45661159649230    7.96859998227434   11.62838244931884
In       28.05866531202768   11.29021250305678   10.76774812531093
In       25.68131905549692    8.90037395987952   13.18559658947567
In       24.16390569822195   11.13961168242520   10.97431360612362
P        23.38741678346387    9.86331638123856   12.96329808010370
P        26.06022906913741   12.75061364395940   10.92038808311350
P        30.04385271434722   12.66263408962333   11.38509495093800
P        27.93415569620925    9.85675343301620   12.76765234871564
In       24.71017720224246   14.22691107144935    2.16145896195739
In       30.49200638565721   16.12515144068719    2.03346437332641
In       28.27999264670979   13.37588843727362    2.45828025348862
In       27.04593396348112   16.76097535903344    2.41321888139327
P        26.59925049803845   14.70115607469293    3.74404240394584
P        28.50704748913220   16.01606498264544    0.58048592347701
P        32.35291930300984   15.58359872495336    0.51550442508314
P        30.18039763835723   14.35343021629195    3.77258008180337
In       24.93739935409038   13.72841621041453    7.50099041043118
In       30.51255529158156   16.19867418265432    7.16456046310087
In       28.51003317909472   13.47772666141586    7.82124351057182
In       26.90405646361225   16.66189511129067    7.22107056267077
P        26.69465350844588   14.82340629952006    8.90657357439938
P        28.58082660225848   15.71080444464363    5.65848272343136
P        32.24403845229472   15.35961148135314    5.57789627798848
P        30.45704117716227   14.50583888396286    9.02173402085917
In       25.72004043082428   13.41933725928865   13.27058440488885
In       30.58511729077799   16.35272661917312   12.25736879287134
In       29.30283642770691   13.51116418328153   13.58997284058298
In       26.80673415571612   16.52784430108699   12.32077481710463
P        27.40165289765119   14.99652947609192   14.16189891297877
P        28.63728413965014   15.65599552511119   10.88149082451333
P        32.47935865648038   15.67901740063277   10.79228417307700
P        31.08572409448604   15.07879484521609   14.31097762853531
In       24.59874542595667    2.48515113857368    0.38415523190096
In       29.17603893158364    4.38473480218107    3.34627738854956
In       27.14868923331349    1.20371775362050    2.95387104183439
In       25.94786215624418    4.52574411136409    4.05980729369016
P        26.33034072264651    3.29797677221698    1.94623139730378
P        27.80911605966272    6.15159960496140    4.48991025271908
P        30.99424716826748    5.33886496981787    4.76550252511019
P        29.15484682716840    2.00552275471062    4.14436129034463
In       25.25154502467973    0.86154678325834    6.62445806379605
In       30.36072993198750    5.12115568037666    8.56724415524815
In       28.73967433490222    2.00956615427000    8.29276564230222
In       26.98873143758890    4.82342876193662    7.50721262091832
P        27.06088181129789    2.52666801377030    6.53393984889947
P        28.18630701290381    6.12577270389535    9.27678657985662
P        32.43250383881956    6.22470826424040    9.45518304975627
P        29.96457543061184    3.51708553204432    6.70516570242247
In       26.80233263447283    2.21860527962596   12.65278537996473
In       31.70585747801636    6.79874437818917   13.50090303637030
In       29.94429376165724    4.15255710943202   11.88536214141805
In       27.08671557050493    5.84868470656493   12.93393413701292
P        27.54778666569329    4.08168599645328   11.22150655599949
P        29.22610002708763    6.82270374239019   13.76258399320601
P        33.58409149189617    8.34838985554536   14.14986338896637
P        32.33681441312717    4.80008789903790   12.12404988512517
In       27.19839324742098    7.09232491619863    2.25582647948282
In       32.35023670185302    9.87883359938412    1.99358588090476
In       31.57417837767915    6.91341813629952    2.93115533532702
In       29.05669401184685    9.86650362973730    2.85644452068070
P        29.55489284672417    7.71404631779248    1.72347113982221
P        31.05507140749949   11.01584092199280    3.80880895207781
P        34.06432025721566   11.17131586960005    0.79249493749451
P        33.00875475776076    8.61388551629627    4.08121085526322
In       28.48829495852151    7.91138300947775    7.53904916363712
In       34.06738958262813   10.17510184479230    7.78601458476207
In       32.45728341409572    7.33036814709496    7.21936881247333
In       30.57353559954724   10.45224605559503    7.26023285505045
P        30.47382707049427    8.27258009527595    6.05216476050692
P        32.13960074194060   11.05862667551144    9.10917701021295
P        34.31490114451985   11.53435652134906    5.75238519699653
P        34.74716086965920    8.06597382008914    6.61540043783464
In       29.21924631725499    8.06776918259048   11.60760725106271
In       35.35393217433616   11.17276214669157   12.93990610116274
In       33.90284011145528    8.62261906890554   11.69651463003932
In       31.15845272633666   10.62209172982763   12.27897685191144
P        31.54891509443150    8.61139415973145   10.83493456806114
P        33.03401362558419   11.12554409248274   13.83030078159388
P        34.80960280001540   12.35975234678525   10.83057535371686
P        36.32511440946966    9.19598760254443   11.77717129881691
In       31.90555983864197   13.02337402471670    2.55556745021689
In       35.48404308974148   12.44803356211929    2.28717064787220
In       34.06637117512830   15.86867716892047    2.21708059089217
P        34.00689122409872   13.86836865729532    3.66676958800077
In       32.29759801635104   13.23905007706932    7.89177390232732
In       35.62479986211451   13.22757933958950    6.94991927765023
In       33.99702384462131   16.29160565813318    7.03032435137117
P        34.33009288954128   14.46879981912159    8.66383069866081
In       32.88766753652377   13.59331231606335   13.49163625845228
In       36.62614622552351   13.85246105360246   11.52826435887362
In       34.23172689330903   16.66174599952605   12.18976691676473
P        35.12469556587290   14.65797575677542   13.30392421702495
In       30.94733089848558    1.50220946160992    2.52426540531353
In       33.17582674707224    4.29422857120020    4.16374683198283
P        32.28887156128937    3.46730279905495    2.03545189627367
P        34.87380663924753    5.92365629035133    3.48202874577673
In       31.74384054910207    1.76933634256618    6.88157460534684
In       33.67020167112872    4.30802012508886    8.43338071972329
P        32.24851446196023    2.44478427953034    9.16873033768814
P        35.82481889269425    5.13254627700904    9.29337167975429
In       32.49012424324164    3.40498103362796   14.16250297884491
In       34.58404376120330    6.12401122445065   14.67597293170028
P        32.83086913911285    4.99124851735191   15.97991867777110
P        35.14732705629776    5.74062000887528   12.30291289771178
In       35.24218941057208    8.29236081662737    3.04741568577595
In       36.27967160491765    7.33457009388981    8.37998094310561
In       37.25046519355114    6.99912767820917   12.37373437175539
