208
 energy: -14.506628277013 gnorm: 0.000651572803 xtb: 6.4.1 (afa7bdf)
P         2.96140755564628    7.01043121052903    7.94723316867569
In        3.98291317339601    3.39784907200661   10.43546010211621
P         2.61516423222281    5.25500493227624   11.18158741097114
P         4.24332474198038    4.50365649201429   13.92636297833475
P         5.73277346235358    1.95969815254782   11.30467424049648
P         6.06695682453799    9.59542640580183    8.02016673155409
P         6.38924534917496    6.81589632806720    5.51437558856908
In        3.19735300527385    9.95650614807410   10.80161043236588
In        3.31861254606404    6.65745901447074   13.11283705082714
In        3.24020228098703    9.99788045957184   14.63584604424339
P         3.99358558187990    7.73751401045264   15.27184015834918
P         3.85491879079014   11.42834697956601   12.68385516856688
P         6.61409595883779   10.19792427414022   15.19885723643861
P         4.52621842579632    7.94875197408920   11.30951588481444
In        3.93190870090548    7.57237333103722   19.41693717769125
P         5.35578289509374    8.76699580578113   17.81427106424739
In        4.34787183419529   11.00947761365583    6.99055240281950
P         3.38626925995838   12.86161309303968    8.23662940937496
P         5.62024812378835   15.75540941610206    7.96652595554272
P         4.69763299887954   12.26150174504868    4.89023159207577
In        2.73472217894768   13.55470439951867   12.16637537397597
In        5.95823034441806   16.06869478694550   11.57609877010122
In        5.79587829252751   12.27975118692721   14.04741701773914
In        3.86872195737454   16.45832275486974   14.64656920005813
P         4.88403218320526   14.31536484399807   15.13131798230213
P         4.68931710117089   17.80101647079843   12.76924108905921
P         7.48926268982644   16.84586451588505   14.90739734677022
P         6.73579133180531   13.82617783979983   12.29848362045932
In        1.91656601671067   12.03099261800372   18.43754227276724
P         4.07468200636140   11.56803364583568   19.46275169613125
In        6.60703233109868   18.88667483893637   13.89471391696421
P         7.74846935899516   20.27418396078090   12.18541253114215
P         7.72016165661185    3.64815879424729    6.67072011151216
P        11.93159299473695    4.03383731870396    6.62554830315833
In        9.39797502838198    3.55036097693585   10.43817084243176
In        9.61955359185334    3.06529116092099   14.32356784893018
In        6.34231101609947    3.40213111886973   13.22905844858122
P         7.57692242399507    4.04696888238111   15.30661436076734
P         7.46850623964607    4.72685939503479   11.41531437511936
P        10.08344521496507    6.51357800902900   15.21135048802701
P        10.97825253837376    3.77842149124487   12.34473974013877
In        7.51490898654577    3.95445389014123   19.41560658572597
P         8.71332072927664    5.35599071170580   17.79391369436081
In        8.69598619205703    8.10150196868046    3.01817823227616
In        9.70140345624609    5.07524567524355    6.46070019962701
In        7.81019335971056    8.37424432529775    6.74535597976393
P         9.18923361621014    6.81958452114314    8.12682529185764
P         8.35263218538127    9.83660621770623    4.75401570707731
P        10.39216265656418   10.15958883710953    7.78583533309275
P         9.99076208159196    6.68035217389124    4.56146232714969
In        6.19135475453445    6.47715076759388   10.26036254074711
In        9.13709592301660    9.18951038749816   10.65644944818739
In        8.78407803712164    5.99190093916676   13.14055066803098
In        5.92585490643532    8.95852046088847   13.14031282030327
P         6.60786654796329    6.75419511389854   14.04091807521927
P         7.05423063904443   10.32020341362085   11.38964116494247
P         9.23853780129048    9.18080040270768   14.01927105982603
P        10.17997693949877    7.05381164588796   11.37776239302488
In        6.93452465757525    6.96677434099982   17.19698636613777
In        9.43567374635669    9.47003685740203   17.26851017694488
In        9.70481554891046    6.81878063900440   19.56836980499707
In        6.84130940305082    9.75084478342339   19.57147789610620
P         8.90283510839267    8.90055050488833   20.60736116580035
P         7.91854710039991   11.32816669601244   17.92389918141123
P        11.38898779280433   11.42500428506676   20.68125176853647
P        11.26482495837094    7.93491361635944   17.95072153342790
In        6.57558928051634   11.22433790554932    3.72297572904824
In        8.49770575248564   14.69688193808191    3.12615103816305
In        9.39365338204928   11.68335760302276    6.08846143190289
In        5.76690115726935   14.18230826917721    6.08403756172870
P         7.35096072660121   12.59466373079528    7.11462058243767
P         6.48268791080470   15.61019914898644    4.16656346561305
P         8.87522090547565   15.51305290376599    6.76156786157709
P        10.13548314436673   13.19979445081241    4.22381886834111
In        6.18213408156193   12.38564267718167   10.38295063332813
In        8.96340375246963   14.58638097721063   10.08334385398526
In        8.57542879038717   11.37692669408039   13.08321603419731
In        8.36817164270836   14.74933772420933   13.94962357947561
P         9.15743677606093   12.67571435625927   15.11683666887826
P         9.28205603691881   16.09451143876855   12.02336877117442
P        11.63803124664584   15.10178869528350   14.94492426561287
P         9.74123956192925   12.54310100612287   11.22915567547941
In        5.60341600230380   12.19156096998238   17.63018307777567
In        8.05271471358455   14.70076302083183   17.62220814650696
In        9.29811054470229   12.36278222964495   19.73485583287538
In        5.74027086435111   12.61288045718418   20.98625133982022
P         7.95863339548298   11.91143739787417   21.76734748378692
P         6.50952457825312   14.51647607297053   19.56065573388234
P        10.40946694083657   14.49797242730125   21.84684115780388
P        10.33909672170722   13.74024395474524   17.85555231020010
In        7.53977930873828   17.25986913247411    5.68000945844971
P         7.45904855557044   19.03208731230308    7.35136563775970
In        8.56705125398609   18.26336454961093   11.03661075630372
In       11.00476819606334   20.68832151999673   10.83140975155693
In       10.87718561472458   17.10749442235671   13.67680005374313
In        9.31257760510749   21.22930439288191   13.83565242933862
P         9.95219779545383   19.09056121446485   14.81428269104910
P        11.11337638397174   22.34786981052527   12.61013708548846
P        12.88175285403525   20.89814363080470   15.63625224818617
P        11.79107124035591   18.55805906756995   11.83709208126930
In        4.35391676075111   15.54070802860910   18.99721186483606
In        7.13293911623967   18.37865110745145   18.42640529419920
In        8.36954755736471   15.49965789513528   20.91713420041847
P         9.08961026573586   17.21226559972708   19.27445085518348
In       14.30607552161357    4.45783956050832    6.19513888606645
P        15.10094745662521    5.11249832183982    8.39246751169759
P        14.49871349521304    6.19286212694192    4.43426987445711
P        17.16123255019474    7.62564721043153    7.30622074768003
In       12.91522308083120    2.52116116282019   11.48569545986387
In       15.92150897073320    5.26638251979754   11.99376052983033
In       15.19831360322511    2.27717147112780   14.66363016330786
In       11.98353610338635    5.41326816078726   13.98913668841003
P        13.21288036211739    3.58552305458186   15.10903759851195
P        13.72434717828838    6.34476764025586   12.43136648373524
P        15.82767146580877    5.98132626493519   15.37105636482639
P        16.81674037721483    3.26640665946560   13.11664041477523
In       11.70414027106307    1.92190909109573   18.35477158648191
P        11.60069606566124    4.18570180855138   19.23416603988461
In       12.21237054498222    6.22006406464560    3.56166009030125
In       13.92155873345171    9.62980609131284    3.33869189620386
In       14.98213156787637    7.88425188703808    6.20567328893462
In       10.95409840248385    8.49524413495464    6.02852947036032
P        12.77584521124670    7.30254054240424    7.16904050461416
P        11.59872414785717    9.98868863899972    4.14421883337411
P        13.53211230400758   10.45448536831596    7.81601627759448
P        15.46139955398443   10.14007288048741    5.18848784348105
In       12.27525857685782    6.15722034997374   10.43238757974347
In       15.03254543690013    8.43312944511542   10.45765084365227
In       14.63514593861628    7.82509662980142   14.24143964603041
In       11.40977059874723    8.36547414481312   13.13633877801003
P        12.62465849272925    8.94010861439210   15.23231704769200
P        12.87638182330169    9.27619208831806   11.35153871114483
P        15.13932228395512   11.34904915611330   15.20951871311728
P        16.30768311449154    8.67853454991791   12.57189927333634
In       12.42819019746665    5.78591810457555   17.54747957036175
In       14.98505055430437    8.14297549009127   17.92988289471479
In       12.56025828136332    5.71786054139416   20.94198743097517
In       12.27837437530937    9.28818655685244   19.79136047059886
P        11.84832832443594    7.90643118684614   21.79936412953744
P        13.65694701665235   10.24228222828268   17.87508408987981
P        14.38525212478744   10.44123140979263   21.90001725116160
P        14.61325271263972    6.46662081642462   19.72747429039266
In       10.60139339129159   11.50946373360445    2.47939088710398
In       12.95670083821931   14.56084587759205    2.86946059616699
In       12.59294904286566   11.59985932794988    5.82855474112874
In       11.08174869687547   14.90822724496372    5.81652218648215
P        11.88149333977106   13.30496385851677    7.50433049085904
P        12.35393466823604   16.44376279564053    4.32085243434008
P        13.95864367860512   15.99560185616602    7.73402462505242
P        14.04454091965830   12.78835230593132    4.19163446170504
In       11.85035806609024   11.40810567049742   10.57089721593374
In       14.42268106444197   13.65146910739205   10.24947818648496
In       14.00282155619476   10.75534777057888   13.07446371936108
In       11.20582668214836   13.74955785693022   12.90353935672061
P        11.83504904905488   11.59240953098720   13.95247736435677
P        12.35615328621517   14.82404169271665   10.96720456013368
P        14.44263430490129   14.04599973564167   13.69120905808678
P        15.46788284479604   11.63463092659065   11.25347824640353
In       11.89801113836289   11.89594716713785   17.29231043406583
In       14.64739385672905   14.58492461362234   17.26521343691652
In       14.64005787497466   11.62536010959648   19.73720011072603
In       11.70105272621831   14.68619110937344   19.74102166378669
P        13.73819147758911   13.70144520934771   20.72074465535837
P        13.06987579134100   16.22242920057728   18.24782676155055
P        16.21359801377219   12.90730645257101   18.20852664488658
In       13.02003133798036   17.76097443951671    6.30824447059629
P        10.75387113009237   18.47478788323029    6.81727486936187
In       11.54772545435587   16.94441403253033    9.96928342564590
In       14.44373506719500   19.52329255768727    9.70638372907547
In       13.83953334859806   16.14965852764059   12.53002979975659
In       13.27027030854601   19.66432785247855   13.54873274760310
P        13.98481058509192   17.52161283341508   14.59767549613738
P        14.28300454584022   20.93900619625685   11.67824517321952
P        15.14769626626255   17.43001775741705   10.81701529698110
In       11.02402536153175   17.54215735221982   17.80166614007861
In       14.20272748394237   17.37329184666683   20.09851773709002
In       17.85194761875921    4.73083834514131   14.82418721554178
P        19.58931386919168    5.79973502639470   13.42878106452300
In       15.91126342770202   10.97456414768594    7.47670740153270
P        17.17448108962243   12.98650623722079    8.01339784619967
In       18.49917972424664    7.58989641396321   12.15458366274290
In       21.20586289408644    9.96431775101798   12.18637261389195
In       20.23225126146307    7.31772181151422   15.26494454657614
In       17.19564018836295   10.32180940132944   14.25185354694556
P        18.12255398762585    8.48855468105537   15.61270418777749
P        19.02845843011557   11.03670286778942   12.68870314571927
P        20.65442792780776   11.30236984257095   16.27620720245834
P        21.89831942997731    8.69260084390803   14.12302673217339
In       15.56044810153569    4.30911231375480   19.04380952674131
In       18.49232179052300    7.07339546458776   19.25947923075480
In       15.36569114991509    8.27863808621537   21.28116839187485
P        17.30306612392844    9.07588888259571   19.95288917780341
In       14.63393443703463   14.59882885649904    5.81686890989023
P        15.94565716015084   16.14528566676466    4.47695208316391
In       17.69690389533419   10.72317282510819   10.61842868300957
In       20.33378207966883   13.45019696807204   10.49304332607796
In       19.89284889326408   12.66983802006158   14.39680373290725
In       16.62682660572252   13.24475086482371   12.82785886867411
P        17.68535466811310   13.59000708407553   15.05020412132015
P        18.14749551307387   14.37594976195560   11.18271604875804
P        21.45957089191330   13.46663433259317   12.64992412446525
In       17.42365057734760   10.73812431589279   18.14788592515414
In       17.43591093088035   14.09955975452022   19.97575240083249
In       17.17205393227658   16.29406058527080    9.96174637082538
In       19.06498305200880   15.69129070593239   13.10505865764192
In       16.33107025134577   18.53648436732686   12.72905790749039
P        16.85899162021123   16.43392625970389   13.87970483189644
In       17.47213867314740   18.01791073115336   17.31897045811716
