24
 energy: -1.122719355684 gnorm: 0.000388941815 xtb: 6.4.1 (afa7bdf)
P         3.21577377881633   -1.11851883649563    9.74340240008713
P         4.54699954251768    5.08389544556645    7.70460325451229
In        0.30295800465865    2.20388107084559    8.89362966945192
In        4.00037688563078    2.77527245547888   10.87114283763160
In        2.56463247791091    0.69772215963455   13.50766955296856
In        2.21395354275664    5.16128472024634   12.84187734417498
P         1.57109904948941    2.90280107835572   13.42749803777292
P         3.27269916450778    5.09573958345192   10.65954923970796
P         4.18193123497805    3.47105809591592   15.76498759902193
P         4.75623843145800    0.96130507432918   12.37831147461659
In        3.54269245928391    0.60699951647076   18.47218184548167
P         5.39139781342186    0.69628666418336   16.91333625439573
In        5.19460968448715    2.81864105413780    7.25016399039200
P         6.31430385625492    0.86433544119146    8.07194855873978
In        5.85259049055627   -1.21422782327915   12.60487334217211
In        7.52956903283390    3.69376281923762   10.57997255837517
In        9.04547615682324    1.38355290956086   13.00976142123596
In        5.67313460118830    2.64299404253406   14.00284064598692
P         7.46427826702440    1.14017158082798   14.83638487642002
P         6.39790156070984    4.50321418314688   12.56092238215426
P         9.75793127596098    5.34103971485691   14.29072424523201
P         7.86007770146046    1.30369058419359   10.88860255280880
In        6.54046159982677   -1.35055323392939   17.50844736635198
In        7.90024338745798    3.94622169954534   18.04860855031527
