78
 energy: -4.805905114307 gnorm: 0.000749474611 xtb: 6.4.1 (afa7bdf)
P         5.47750562107397    5.73342815446747    7.40684594681340
In        2.44294563972567    3.48145188543420   11.02118381266130
In        4.13029191065862    1.67687054937482   13.36122073232413
In       -0.00302632117005    3.76534910341781   14.01117230634299
P         1.95630450350047    2.35033053276203   14.21725342691932
P         0.83569635308534    5.04789239521294   12.06943809501387
P         4.21845166030103    4.89689974963723   14.89066470134796
P         4.85236948135556    3.20569240454469   11.53757297646185
In        2.66311735987002    3.24873647117610   17.93657233395589
P         2.09251249075373    5.34242519911081   16.83058649108724
In        3.19632576365898    4.81542245661907    7.56193798709258
In        0.54188943564361    7.60574975554222    7.85890277668839
P         2.11900501396359    6.33901455996665    9.15844327373861
P         4.33357088795116    8.53652024575345    7.52564054181177
P         2.53429851835942    5.44711980420985    5.29925719879883
In       -0.79428467420484    6.82310696753008   11.66727824613962
In        3.35863547554028    9.15868755261558   11.12210946260989
In        2.62574781854764    6.15090930456940   13.45188920376598
In        0.86477408909014    9.74451184392412   13.85808152381916
P         1.63311793364092    7.77085284608252   15.07577035309936
P         1.96547526105506   10.99050613529444   12.03261048199869
P         4.44249235132843    9.64120471681443   14.50754477082093
P         4.19162772054443    6.88832578328359   11.63198040026805
In        0.16474130457947    5.94777785973701   18.18548128374066
In        3.15573708452679    8.75031115555920   18.11031959239883
P         1.11405610834428    9.85372460432546   17.35237093186407
P         4.30094599034952    7.04060900065734   19.43331117987585
In        3.48944480256125   10.80457300134377    7.33223977805211
P         4.13613186552004   12.50052967411227    5.77075431909381
In        0.33618021994764   11.42036566785182   10.26103823301074
In        3.51822943118165   13.74483785353069    9.93646706231691
In        4.01631891599675   11.74243580843014   13.29253230607383
In        1.25956792104535   14.13502899627686   13.34134308024350
P         2.83945800646328   13.20917641235087   14.93427517608157
P         1.79322915169473   14.94682381949138   11.12657033586666
P         5.14576022119524   16.16271334818266   12.46593884858379
P         5.16970796828350   12.40232100290032   11.16885643819739
In        0.59588501855121   11.58354140904421   18.94085380215969
P         4.54821289431418   12.23128675252144   17.17642573330517
In        6.30550807101462    4.79063773840351    5.33755213347667
P         8.36722706916199    7.51465232065518    7.39735928385905
In        6.20840887994918    2.70019229102858    9.58015102344653
In        9.88841418942782    4.62662991229337   11.02157375883670
In        7.74883094867696    1.22518243712737   13.01220094310736
In        6.07878852874779    4.44232348846854   13.32645683372309
P         7.44940532558337    2.92053704924365   14.72198674454487
P         7.91745026033393    5.64064147114504   12.10972692843356
P        10.65188936857238    4.46626427032043   15.20513962302057
P         9.37668565675604    2.33071430375781   11.59663626742598
In        9.21113527304666    3.57552183361850   19.00157181817745
P         8.00846888293208    4.97252227109800   17.43721400953473
In        7.36680608424081    8.99622554316959    5.79827341633180
In        3.70421961583230    7.59474663049725    5.35330284530071
P         5.49338967986249    8.88216909729747    4.27148806963815
P        10.21092393192400   11.04698344150258    8.56573152507065
In        6.33489625640907    6.53151131352279   10.43471165338130
In        9.30201584250349    8.47934705349244   11.53106086947069
In        9.02136395271863    6.06784509675628   14.31982066308466
In        5.66706823314614    7.76560021997076   13.49269794208659
P         6.82851432298765    6.63309746155720   15.37771105867594
P         7.00891290372306    9.28229136116139   12.02047768967334
P         7.33838572534459    9.98523363761775   16.07568673429010
P         9.77827773711238    8.39889398846174   13.93083817390306
In        5.90079677846465    5.38114801749347   18.60390849973658
In        9.02408518543104    8.36159644340526   18.78594516324379
In        5.81677903602571    8.20096700481438   20.98799883561746
P         6.65810756491662    9.03481470626049   18.81970490098938
P        10.67652614125977    8.27972348889655   17.04945569257962
In        8.76725963836833   12.65626119254970    7.53161184029966
P         6.89379912102518   13.96842413348632    8.25717389140184
In        6.44116979675070   10.62442136095962   10.03981837615466
In       10.15824068745481   13.62856845908314   12.90934044458490
In        7.64214422845208   10.91256441897994   13.82336832012837
In        6.56048319843557   14.18216934648016   12.23902358713941
P         6.83673862277531   13.16384871509559   14.45831336190167
P         8.67255740887968   13.82969800750344   10.99961688545671
P        10.07036453988838   11.25071635878696   13.43427328021497
In        5.89833261314615   11.37754183062038   18.98052176768063
