356
 energy: -26.918086928763 gnorm: 0.000605198899 xtb: 6.4.1 (afa7bdf)
In        6.43228018030169    8.08378435440830    4.10549470538053
In        6.63714841390081   12.45231030884491    4.24082927622717
P         4.77525300880665   14.11074312316692    4.33490455573869
P         7.64206916164772   10.17410326079949    4.42924453539162
In        6.16741956026273    9.64436129510336    9.68356338564518
In        5.90993385858811   14.19995449953935    9.71294540332761
In        4.18981469157402   12.01201222864981    7.34138554051154
P         5.45651754387500    9.93501026429307    7.35498766213823
P         5.31882512306098   14.20815188638512    7.30249539932413
P         6.91174582382120   11.96380561415179   10.19137881711381
P         7.19195078415362    7.42427446895782   10.00240683708252
In        5.85370722561874   11.60978181531228   15.38004887666722
In        5.79991088690956   16.06398181203601   15.40644732708651
In        3.85020795838158   14.02261778088135   12.92149531261827
P         4.93055763036089   11.84556778962710   13.11692605926533
P         4.98770955227577   16.21205766460466   13.06375657389841
P         6.88740209043995   13.83946143804027   15.80634517843691
P         6.87596672708736    9.40880361470671   15.79148029067241
In        6.78398313532425   13.51057299721791   21.13412675564690
P         6.61225809281201   13.68711114532500   18.67981871111063
P         7.99930481237764   11.38197999026914   21.36557033742078
In        4.70036466116057   14.53955966800918    1.93166663906288
In        6.62789444516699   16.81691823193202    4.15128783493079
In        6.31888275041293   21.38521637847353    4.34920849124528
In        5.12746363351615   18.90523091910980    1.38517784371829
P         5.98136265867560   16.63533193940873    1.76816449295355
P         5.72399286131900   21.18143226550247    1.98359035052963
P         7.32517228486073   19.13765952541985    4.75253530638514
P         7.77146483417231   14.64180129255264    4.63694093851101
In        4.49704091655248   16.55282176861755    7.37478232377654
In        5.74060986715338   18.77675996403317    9.87066922839633
In        5.72272829964781   23.36224593610811   10.17130014394407
In        4.40900559375147   21.17464998596313    7.57314249545013
P         5.35620804062178   18.88328060555679    7.42182901553277
P         5.28940287665644   23.49134268936628    7.73140944645016
P         6.58345860538015   21.03964839383014   10.50607785177103
P         6.68555553362736   16.50016003668836   10.27485426763952
In        3.99029180796843   18.47380665728500   13.20993122195185
In        5.72508151824731   20.58943629080707   15.62897038804187
In        5.75625184202015   25.10163409192575   15.90641152317853
In        4.00792168081572   23.04418819267588   13.47432355135632
P         4.95126505018003   20.75861711026403   13.27498784975123
P         4.99354618065588   25.32031216079882   13.55345301538354
P         6.72119201293541   22.81114868319492   16.22620680897398
P         6.72991636477956   18.31813045545135   15.97953708497264
In        5.47963819566619   15.86729163160957   18.91963235699476
In        6.58626666252788   18.03150538302681   21.36016319378674
In        6.47223718055004   22.54412329203835   21.60042861757374
In        5.35014710910932   20.38956683041673   19.13913732202685
P         6.43708829678284   18.16504712914079   18.87317907063156
P         6.37455912578317   22.65929780108172   19.10948347478413
P         7.55713676230585   20.30067299518447   21.70982897574122
P         7.69289549268321   15.80104460040714   21.47051785100398
In        6.12018917643668   25.93116606218678    4.72646853911017
P         6.83452142668149   28.20874117878879    5.26405280259971
P         7.08290599518387   23.66906243908694    5.01585146842366
In        4.35668138054239   25.77506496874262    8.02873423224315
In        5.81413584869597   27.98230482644711   10.53521930881019
In        5.78843816657508   32.43408335774885   11.25265064180326
In        4.29522984051516   30.25539630626224    7.81839082189544
P         5.31740631833391   28.05934900834301    8.10450342647914
P         6.75568881697973   30.16600655116951   11.30172805782754
P         6.58050666752477   25.61970405769456   10.81447889193484
In        4.12475827395107   27.61351583738028   13.92498347616116
In        5.97898711777163   29.64585867448630   16.51188072573179
In        6.20901861854183   34.10440399459334   17.18050420393114
In        4.02146075676931   32.00160245556287   14.61847024853873
P         5.14912477201075   29.84966666995642   14.18069361941086
P         5.20276434510805   34.09975626077003   14.96439512707729
P         7.05849187400674   31.79545940195160   17.13760674672230
P         6.79680118530090   27.28791552445495   16.54500028466823
In        5.27159157444224   24.87723566687884   19.37134335648079
In        6.32274214591927   27.05598903889132   21.84724856368243
P         6.31058636591720   27.11911548577571   19.37961887134595
P         7.32454112857915   29.28662426633431   22.08610275114395
P         7.42375935445229   24.82694744291001   21.92653293330602
P         6.91228389053516   34.55470169402256   11.66649888445032
In       10.02346461990064    5.06939135085335    9.61829085913141
P         9.37375143458688    5.33625716363247    7.28131785015926
In        9.55943188677155    7.02454297295257   15.29734350450149
P         8.64630236363137    7.14388975671160   13.03139148644655
In       10.39516536673843    7.74732281353090    4.25656018094905
In       10.09452235419296   12.39019251624899    4.49420169295892
In        8.83326280271339   10.25854370320791    2.24859991821335
P         9.86791498879095    8.05677710839094    1.88835939010848
P         9.83137308110852   12.52412237266942    2.03544333362850
P        10.99745350673490   10.09305316946430    4.82306364607758
P        11.45182052277853    5.56707917663094    4.72589585061565
In        8.18408072337555    7.44661828801715    7.75505061320291
In        9.57096398304321    9.70169515564312    9.83637557575219
In        9.28899998033436   14.28077078098430   10.03322237181313
In        7.92040802111504   12.05868756712508    7.93051946951758
P         8.89662789681726    9.81707996086140    7.45647847005494
P         8.73976409575032   14.39513450100358    7.61901064311855
P        10.25651713564041   12.01873665019778   10.42994027820487
P        10.50965270684419    7.42289106768246   10.17460942679069
In        7.59308263782396    9.32879214600973   13.44906986467900
In        9.38970381111453   11.52342342382325   15.47385476700779
In        9.23200794871870   16.06452689764086   15.59151635966755
In        7.44447724349734   13.89385933479848   13.38622646310090
P         8.47931111971506   11.63699312524727   13.16632035256968
P         8.36995355437748   16.20539860514219   13.26721161467073
P        10.24748765788077   13.81881511348271   16.00227314610946
P        10.42518648618511    9.27579391850029   15.86951180631555
In        7.55063019610202    8.17927263301166   19.28495793905222
In       10.93191390320367    9.21880701008442   21.16418257054023
In       10.30471850168870   13.70298484655679   21.39720653064541
In        9.12592880364470   11.44680420079081   19.18651957787437
P         9.81734237944072    9.04101238237623   18.94079902089074
P         9.99948229595717   13.77522549342984   18.91721647528645
P        11.61991813148128   11.58821650267159   21.47442349008584
P        12.25733750533965    7.16065945356780   21.41558900749079
In        8.70054058474615   14.72280628399419    2.33080588083582
In        9.92804896746316   16.97196437299763    4.64276665697528
In        9.63218070474576   21.54966636556521    4.90463213933272
In        8.47965593414742   19.29432000541015    2.55977843104298
P         9.52944235681380   17.06381894576822    2.20470873455806
P         9.27339783945365   21.65216862137995    2.46033119051983
P        10.66924100297660   19.29309256344510    5.13627870003372
P        10.91016562747362   14.70015620517796    4.96883563375573
In        7.73162886273932   16.63443893610011    8.03524515799926
In        9.10565757909240   18.85822639411174   10.19234430636768
In        9.09969065344532   23.42445470444789   10.46413401359048
In        7.62948766229745   21.23243486103182    8.27093189712377
P         8.55502312784766   18.97307021687701    7.77686523645508
P         8.49500304513378   23.56109421752630    8.06344409602965
P         9.94484024956045   21.11248405271764   10.82099481317250
P        10.03992646452224   16.58467351497650   10.59281892112016
In        7.30882847286446   18.43893362260552   13.56481580617052
In        9.14674618601592   20.51857253527216   15.83226430509275
In        9.19511954955028   25.04089187295076   16.12056125995942
In        7.32310896337494   22.97544939027890   13.82052513138613
P         8.31709818251249   20.71426196922775   13.50103228009917
P         8.36904819573879   25.23830083805937   13.79068352963802
P        10.08003006620642   22.73899591076792   16.50166723325272
P        10.17881577737128   18.28140562104432   16.24445357910782
In        8.85619837319958   15.96919163032788   19.29444653200603
In       10.08047885283956   18.12746124819823   21.61785141460404
In        9.88674973490908   22.63004358034555   21.89088779149736
In        8.73142371869162   20.43147069159165   19.53558777463659
P         9.88600341489432   18.24297797752577   19.13046252774346
P         9.72072172038770   22.72936505729424   19.39988059973386
P        11.01502810401913   20.40834213417205   21.98168415260075
P        11.31901402848098   15.96498426849083   21.63158584695127
In        8.21619820345741   23.87579824970712    2.81417764903850
In        9.49707299904883   26.19448144949944    5.17462600389957
In        9.56840965483293   30.87408484944679    5.64954137612454
In        7.98341039255048   28.43027496584384    3.11317382554851
P         9.03018320813319   26.22589910672918    2.74726867282825
P        10.29071969604161   28.53268138875718    5.54245798767813
P        10.38463613876807   23.87020181962782    5.42687279873470
In        7.63020712315457   25.84083098394490    8.58436709831725
In        9.17616390403990   27.98513288257272   10.80904328755620
In        9.53823439839955   32.55135153923145   11.42404845584895
In        7.84900278759258   30.48748870137864    9.09948309111932
P         8.49722779177210   28.17172067635716    8.43249909545953
P         8.84375447318893   32.77091997824009    9.06213768938611
P        10.18715716594961   30.15290052906474   11.49352112691615
P         9.99039444327282   25.64995238704904   11.11113063872079
In        7.43156640742915   27.51386558624170   14.16018862288094
In        9.36495597092021   29.51627392524570   16.45384587729845
In       10.14706671372350   34.15039558275384   16.87703391674476
In        7.81622777214861   32.10334020751413   14.80337775322658
P         8.46036007504334   29.78268570957193   14.15969805267533
P         9.00460418005544   34.29118817017769   14.67785202639672
P        10.43199652909985   31.68710891284841   17.04722862931939
P        10.22808568085610   27.20775011581162   16.81572366127649
In        8.67227654620977   24.97681481246956   19.79361915999524
In        9.83713042692091   27.16727980101358   22.19255376986465
In        8.66592092639807   29.48045142356199   20.03876608454755
P         9.74470137565348   27.24326469450819   19.69672672683602
P         9.45956247706311   31.79335926065397   20.05234831634996
P        10.94459870996114   29.36137283172341   22.42897273505334
P        10.86355948036653   24.89247666686904   22.26762355521657
In        7.96710833164134   35.02455197996064    9.51999460349580
P        10.78405105395584   34.62727270002411   11.86371739100402
In        8.40638944057564   36.64771708659778   14.60251950897628
P        11.80251190791856   35.94576335243822   17.22539603439639
In       13.80984331385232    5.52824213889220    9.95329949792283
P        12.83788929894368    5.50434440701511    7.72917292509309
In       13.04844898593062    7.06374034194698   15.20352981261897
P        12.04181743954741    7.18759948341329   12.98007979583231
In       12.84377304146054    5.61765801580639    2.72854141351832
In       13.77595105147259    8.11345100752168    5.00470524872657
In       13.40023642994647   12.48206704663021    5.07722975665365
In       12.26742286382765   10.28537200929483    2.69721211075863
P        13.29301024377169    8.02818507533549    2.57876408678576
P        13.20309883884311   12.59291497549651    2.62084113779416
P        14.57264225626267   10.37344667146969    5.68296891524927
P        15.55800364469197    6.48126503660338    5.27979045309512
In       11.60473524395742    7.62011186331431    7.96165023517460
In       12.93263634271751    9.92950702630933   10.06572498887208
In       12.68905784856685   14.53998883470582   10.30447895271894
In       11.28580134229213   12.23901726734637    8.18930126939302
P        12.24767680807912   10.00534113754033    7.68617684347008
P        12.09099184940770   14.57389341331645    7.90558911281583
P        13.60609714131965   12.25481859311762   10.64602916323087
P        14.32584011720331    7.89460334223743   10.35152206245751
In       11.05490354499055    9.39421142807075   13.46832091342993
In       12.75932116929107   11.71879266182085   15.51189117243027
In       12.81497620441482   15.97328884630916   15.67147464521567
In       10.77548229361357   13.93689119616277   13.57580941252699
P        11.85587720926573   11.73646903653110   13.20225126851923
P        11.83107923718590   16.17717144383134   13.40937232459480
P        14.02143387242929   13.82271104209485   16.04945257109396
P        13.68520645176844    9.40775533525979   15.70259102598648
In       12.49678633090849    7.03281668372888   18.99664701642449
In       14.35939685261279    9.67103211044699   20.51767209862095
In       13.98756045503814   14.00468785415197   21.40052567582440
In       12.43041424402942   11.86870826366321   19.16081302900051
P        12.79148653427516    9.45952679819551   18.59074445223715
P        13.70040332721542   14.01441095308344   18.92032516871856
P        15.27361371472080   11.90655570648442   21.05348620666190
In       12.14274114706429   14.83683674052346    2.81344506088339
In       13.22483331743810   17.12005870206053    5.09381157905198
In       12.93751306227373   21.72058508278771    5.34338119355451
In       11.87749932154703   19.40285258514988    2.96608573426561
P        12.99103440695014   17.18201520037844    2.62721141217634
P        12.62065085711370   21.78280989911126    2.89303643464682
P        13.86353863299570   19.44606337106097    5.71003941987845
P        14.06240694704046   14.82444811447464    5.57214677526403
In       11.05315778146798   16.78585290487675    8.34251139358873
In       12.37607447744460   19.02986336815375   10.52096262905616
In       12.58672383431619   23.42388057899712   10.72960284811405
In       10.94547767609456   21.37261601713611    8.56939869405302
P        11.86252536966495   19.11849465917047    8.09857872870898
P        11.92419550056187   23.64032332155427    8.36004983847895
P        13.50836209172493   21.14995361733165   11.11665469276132
P        13.46513554751250   16.82819029044705   10.85321420467258
In       10.74033914044484   18.36640218017266   13.82273254405884
In       12.54427363282622   20.41750637107846   16.07775954156413
In       12.60063383621251   24.74662870146729   16.34624677787475
In       10.67997782402925   22.84401400540978   14.08727664249504
P        11.73828111492347   20.63467491064823   13.74108478462826
P        11.77923886340233   25.06348179508156   14.02421168084220
P        13.72187144931831   22.54643649687501   16.63525452289017
P        13.71266769856150   18.23149263013237   16.29032888383476
In       12.35690923748586   16.07898118400651   19.38690485814676
In       13.58887477429453   18.35771999740371   21.69492124952350
In       13.38817773768007   22.70855048047159   22.05617360828690
In       12.07819603506621   20.57632539857457   19.75213548368727
P        13.22233207272991   18.41721989531782   19.21958602960394
P        13.13186703209512   22.83055116487701   19.56719098144024
P        14.66893999952335   20.57641323727519   21.98887801888048
P        14.95619278875443   16.28073985617988   21.63257571682441
In       11.56379797839626   24.01336333433123    3.24686634732138
In       12.76809326265919   26.28403301032465    5.61683682479324
In       13.63616381262462   30.77065603760775    5.97492289285950
In       11.51232061577309   28.57901379529373    3.39600897498271
P        12.46280292387606   26.32337740857852    3.16244404620355
P        14.02666631015978   28.36437699646509    6.14367674213216
P        13.74943160646609   24.00696126835417    5.84426574767551
In       10.96082115259695   25.87368118049809    8.84331583737806
In       12.40980906993169   27.90021818420784   11.05121576070898
In       13.27162922552431   32.15886598744662   11.65448454422543
In       11.30109356628053   30.53643656354391    9.31268466365960
P        11.81656901664348   28.19640150418694    8.66043614738431
P        12.67398670359825   32.60505145929470    9.29084119981353
P        13.88305103766344   29.75143596114198   11.76462963849012
P        13.40888111222759   25.65775191147996   11.40606700342576
In       10.86623501660681   27.33493121687947   14.41579270343610
In       12.86036468282696   29.20548494429559   16.67986371512742
In       13.41392069852118   33.14364390158601   16.70220877308357
In       11.10769784914836   31.71382051238734   14.66505277955875
P        12.11458012367509   29.47567866669204   14.34429242802581
P        12.36006165880273   33.84917437948144   14.56068277647659
P        14.56531446128628   30.96741620037745   17.04596784556423
P        13.69045284286095   26.89253597242956   17.02241015185409
In       12.01058728509393   25.00417313938557   20.07432180070511
In       13.31338867911058   27.07497901492471   22.44092719342354
In       12.21972317927483   29.45025800262565   20.32799509640190
P        13.19870991046411   27.18467701848407   19.94360300917341
P        13.50963947515529   31.49820666655654   20.01283940025221
P        14.60690087637479   29.15076607027980   22.71529900234737
P        14.48950612962935   24.88812612936917   22.49690734915217
In       11.97796927249274   34.91291609240962    9.76745489810934
P        14.83892063681089   33.93758835051760   12.21470352227605
In       12.45014929394580   36.28281810080179   14.90896434987114
P        15.27337522580195   34.72699068414691   16.54905514192145
In       18.05176844722809   14.40625200878835    5.87803678154404
In       16.38062282213804   10.78902793661791    4.06803565277930
P        17.01608318795155   13.15761201740411    4.03821551272049
In       15.93041356102219    8.60728055930207    8.63592380701088
In       18.00464527542591   11.68470255728239    9.84342013674361
In       16.95209405438674   15.65731135826635   10.24008613419527
In       14.83208932515273   12.72549766920074    8.53895251776058
P        16.48420978134405   10.93656205054140    8.06137129065843
P        15.56164169505858   15.09301260733759    8.27012699887827
P        17.57368189414454   13.55890328602818   11.33927661746492
In       14.45189703381987    9.58086740797273   13.36535988567425
In       17.52626602221634   11.12882432489683   14.27454074184719
In       17.22461439010452   15.34447397209205   14.63077268070469
In       14.56141206812141   13.67743561391793   13.61594065374097
P        15.69509143692374   11.62072080510115   12.69759145278772
P        15.36345464183273   16.00254342434139   13.11591687961718
P        17.75816009141574   13.15016587506328   15.59434448842333
In       18.86552499953713   15.50175512196264   18.95008683137900
In       16.61372522329749   12.69935329025578   19.11592907487455
P        15.57833986958558   11.18280794442014   17.51387714163904
P        16.70316061475978   14.89499803848258   17.89807256027386
In       15.44466156872560   15.00786404787004    3.51250321505721
In       18.15075204752872   17.96745351587775    4.36623076608896
In       16.66628094619266   22.14836071858383    5.79923542846379
In       15.19172280626264   19.74268194386991    3.63407080924512
P        15.99210783692809   17.42519506554158    3.26167063063026
P        16.10105706477645   22.03434614111145    3.39344672622817
P        18.10956266545705   20.18870322483701    5.41188821254877
P        17.13805537357761   16.65368525486846    6.18577380524470
In       14.54407129014824   17.33074889953073    8.66862912985472
In       17.58620631997415   19.50881968451688    9.62864471125016
In       16.30761848223428   23.79118561604878   10.82633615683439
In       14.67624953755665   21.33217527811374    8.94264276613890
P        15.80409957776015   19.35514025811690    7.91834072762175
P        15.16773080756020   23.75741796637999    8.61886829051477
P        17.55599368837835   21.67930708171554   10.76109805375899
P        16.64251835442361   17.90252786628912   11.22255214902360
In       14.34161139668622   18.16735358486690   13.89258106966971
In       17.25018010481816   19.57053805236657   14.70422268476886
In       17.17391505925859   23.68964551921234   15.16655810483177
In       14.41718001524325   22.25427763627334   14.26186772494047
P        15.45956791027804   20.27122749007953   13.12945169397415
P        15.26409793256517   24.55770682644271   13.82472883892358
P        17.04837671201172   21.47263169730856   16.25026302474844
P        17.13711456310446   17.42731162284521   15.91843467719099
In       15.78161420803819   16.72500779988692   19.34520661032024
In       18.32386791984935   19.17937828819049   19.61634086456766
In       18.33479373042808   23.12847886578901   19.98582602434746
In       15.49676094316959   20.87135012691787   19.68029094353101
P        16.24123602665282   18.95504550309285   18.25572844785629
P        16.18068464943395   23.12133413918220   18.76051669387299
P        18.35356631349816   21.03412188422154   21.23152298355553
P        18.66929611436445   17.05744842489471   20.81389479072413
In       14.92808436464912   24.19498044081995    3.66698224428703
In       18.40357301076054   25.20049925167399    4.47535440406230
In       15.70925811918329   28.09383986713901    4.36744686906639
P        16.48208063686829   26.07490587795480    3.22788402684584
P        17.04926526751730   24.52473865967290    6.37735935137001
In       14.45864078554741   26.07640651898203    9.18720460227685
In       17.66917830491123   27.67887943380981   10.15537466781629
In       18.10381036406170   31.64135130389164    9.90356431992384
In       14.99351046233449   29.86116631333486    9.55998476003282
P        15.96058654775988   27.89663957530181    8.38023140503200
P        15.78036363046941   32.18254041326149    9.41971248625621
P        17.83202639995535   29.77731014967667   11.44542339842540
P        16.64366645566389   26.08609347170574   11.72411323606022
In       14.35010513896620   26.74884155566421   14.63691597177399
In       17.38256105798855   27.43530994041611   15.42141179589421
In       15.43118899326755   30.54822280849139   14.77171165186880
P        15.91742983600089   28.39207590528412   13.61814683726288
P        17.38682420879273   31.86451098327033   14.05585787271595
P        17.70074913094083   29.26120210101088   17.00999254038653
P        16.82902699681684   25.45668351921284   16.84321198601641
In       15.52768726396999   25.03664156870901   20.25925634638842
In       16.24940717073029   28.71512740130826   20.98662102044874
P        16.42963091175788   27.09759672577415   19.17176409641720
In       17.24462360902192   33.52204531896431   15.82222163275797
