56
 energy: -3.830185440322 gnorm: 0.000133650470 xtb: 6.4.1 (afa7bdf)
In        2.92059610777698    7.47807850419284    4.56735955021338
P         2.81470045172600    7.01358350899030    2.15739241985058
P         3.98473323378871    5.63854452640833    5.82353317242246
In        4.93068893163010    6.87153751350334   11.19400352403590
P         3.09778561973440    6.42814018573531    9.63748213014112
P         6.67784999879888    5.20803504260555   10.75936949877215
In        2.31401813375574    9.08616434857431    0.97895351279100
In        3.16792698535715   11.58441938572116    4.11224493240424
In        2.86032160962556   15.02220002321614    4.07011967978414
In        3.10019446267281   13.39671072804626    0.32980298091003
P         3.01449916031397   11.33681969305477    1.66099412958754
P         2.11877250905374   15.14261593606338    1.72800083976628
P         4.73887855275838   13.47585942020742    4.56458001514291
P         4.26688298426161    9.52948512890304    4.97841216165828
In        1.69655459460223    7.72899116698344    8.14968781991855
In        3.51303513867785    9.95238936753422   10.35430397663747
In        3.09203647295214   14.26443723485416   10.19079748282743
In        1.63406707817167   12.01893893314943    7.61326830727581
P         2.83992629915603    9.90183958652814    7.95487060312254
P         2.70610508019696   14.22887592188479    7.73559296686769
P         4.48029438816303   12.23074976460850   10.44556421813019
P         5.84412958765523    9.06494150009955   10.42575868324084
In        2.09305631452055   17.49198911042009    1.15226620509781
In        3.37952548745552   19.12607182279692    4.68314814532310
P         4.35616094520017   16.99201107027733    4.09739340790481
In        1.72523930237374   16.48430910581519    7.64915003077900
P         2.29926106656508   18.29667594366708    9.11310859608947
P         5.27016281822278   15.38886471081613   10.36790375847437
In        8.20097738066791    6.61606172923948    3.43271616629169
In        4.90338544720057    4.65560054804296    3.79564987604240
P         5.83008700116056    6.67833117100851    2.75461910123291
In        8.93141829754950    6.64118131597563    8.08772853826406
In        6.08138534266907    4.35234616496805    8.57674406299654
P         6.72753363817671    6.19219201658996    7.06219672872829
In        5.31863610628826    9.10447289277645    2.77305000869407
In        8.32881452921086   10.25571798205422    3.82260084248680
In        8.48955297933483   14.07614280287984    4.01209864580541
In        5.87200740080652   12.87034155392323    2.43989858031348
P         6.94563179708494   10.71832725932128    1.83304112973860
P         7.40253948325871   14.75035909447058    1.89498226211743
P         7.51368804832715   12.13491995965648    5.23459827277066
P         7.55386120739918    8.27727451368233    5.12726725741560
In        5.59618687686998    8.15311616538437    8.14198549796249
In        8.27603461429870   10.40672924323519    8.58911482882922
In        8.05813433096407   14.34702042625010    8.82363697165328
In        5.31277000094094   12.11872671145853    8.12103206667520
P         6.41594746429968   10.17551755911766    6.92818954275338
P         6.40717614529324   14.07038845957794    6.94686999864769
P         7.80611430816853   12.26910902058921   10.12038354609125
P         8.71765553550582    8.32192280252304    9.83585142442074
In        5.73862082153362   16.52940802020371    2.13823470476397
In        8.80410206969284   17.79965334361361    4.09676878309618
P         7.69862522044492   16.03235340527378    5.31878751018387
In        5.38443981046839   16.08784999340347    8.03085317761804
P         6.38522572580153   18.22257121590236    7.39857595002699
P         8.24181510141092   16.41324544417678   10.10458177525626
