24
 energy: -1.122716945991 gnorm: 0.000502298305 xtb: 6.4.1 (afa7bdf)
P        -1.12176651284518    3.21956068461643    9.74074833328789
P         5.08150231730681    4.54705653842575    7.70188314622844
In        2.18425752678314    0.30127594881212    8.91486691589290
In        2.77812608095115    4.00150729567828   10.86857370505931
In        5.16667568492884    2.22041807064500   12.84135847697458
In        0.70127033136974    2.56825020508286   13.50717373404017
P         2.90835968417805    1.57935071543886   13.42857783902383
P         0.96336634354150    4.75941498826366   12.37530156235046
P         3.47838951873920    4.18643286816862   15.76537502290089
P         5.09824081825661    3.27516264312143   10.65673215200823
In        0.60913789418332    3.53370879212809   18.46532089853963
P         0.69513106131066    5.38625738776018   16.91158935908142
In        2.81294385784409    5.18533282287484    7.25718842995481
P         0.86345882494379    6.32139874393194    8.06846932858054
In       -1.21359137728404    5.85487247916055   12.60090449411416
In        3.69644156600113    7.53106890001501   10.57302657772354
In        2.64924702181061    5.67252389642515   13.99803543658654
In        1.38467889234598    9.04645816054017   13.00978951421639
P         1.14348700337375    7.46198989718602   14.83385188001662
P         1.30669477486984    7.86258700453146   10.88769129448887
P         5.34936666096810    9.74311709334878   14.30797658995394
P         4.50692221850651    6.39985010022316   12.55298638010138
In       -1.35665758151566    6.52932280969364   17.50196302892536
In        3.92488738945385    7.90441195392807   18.06205589994948
