192
 energy: -14.379315061190 gnorm: 0.000663415309 xtb: 6.4.1 (afa7bdf)
P        16.41434997487757   13.18822545993637    1.56886456510831
P        15.57095520669006   11.93018365519259    8.46602907586202
In       17.59352015327940   17.00725730808120    1.50082163445458
In       15.38612870541687   14.82529953260502    3.04581121516909
P        19.93879110532908   16.84268207134833    0.75622876604329
P        17.53212399953557   15.87253203741104    3.69586330874990
In       17.00490019692815   16.69396136070360    7.39585176148872
In       15.89751861087973   13.27152684274732    6.47826847751921
P        18.43788124868396   18.67213025042192    7.65244919998819
P        17.96235390779068   14.63455048970425    6.40080283343085
In       19.18009510639313   22.11523566032025    1.93469936055067
In       20.02536918930056   19.10963032103216   -0.21006462834537
P        21.24400780223242   23.36207888619267    1.70178188750883
P        20.38706730112354   19.96497334520906    2.07710714052233
In       20.24622028801181   22.63727122075234    5.48863748936546
In       18.99777637116214   19.49811927012692    5.41001756641333
P        22.41746243489958   23.65878313403105    5.00953919917298
P        21.26573710196275   20.41334150644735    4.92549077671606
P        18.24130946627483    5.66704073614468    3.20961770970825
P        19.68715308784545    6.10300364659427    6.27809723578247
In       20.51949492510105   10.81652630470372    3.11999964090567
In       18.09875715017914    8.09350628546320    3.53331569971007
In       17.23461213041207   11.45004718990158    3.10799119650842
P        17.95867419118554    9.61524448764285    1.61428800808095
P        19.07198719208922   12.13729863417020    4.68562567448540
P        21.62594553942879   12.32310675744977    1.47315063762143
P        20.35104508401958    8.68990695413154    4.41975063479111
In       21.13703009681021   11.46066940929262    8.99195056137830
In       18.95399106293365    7.78783450334376    7.92961975886638
In       17.76745765945231   10.82975399954697    8.52682982611076
P        18.97279994721337    9.88325541889266    6.57268306195536
P        19.06779457745341   12.13904314743513   10.17497776014087
P        21.26603190907301   12.54551939778641    6.75552096994552
P        20.73409687927547    9.01906110495436    9.15495092872841
In       19.20914001783683   14.11661786789106    3.15593488363977
In       24.08197568963168   16.19482058813545    2.76992767257283
In       22.59364638053539   13.30784182048316    3.52601647456155
In       20.78296819165195   16.93820905720746    3.08266933570501
P        21.08059668268158   14.96806150813134    4.57742898930660
P        22.84166909218715   18.02324855894840    3.97572880329134
P        25.86817425713471   17.40226864396325    4.03420860015295
P        24.82658295998104   14.23184546048789    4.15592368843840
In       18.83405965122272   14.09941242260416    8.67735793277168
In       24.00931764540553   17.73797659120700    7.94558292431523
In       22.49054990734169   14.51770808698676    7.67968123996541
In       20.52684639659479   17.33226797746106    7.59899354183392
P        20.81670606219054   15.48148096463881    9.22829922514848
P        22.01202323945336   18.80185835579180    8.93950439076314
P        25.41837512963628   19.23651610897684    6.50335070116903
P        24.02600886340997   15.90937072732569    6.25419433645506
In       22.86346384418667   19.74670722322939    2.16952327192636
In       27.10599592293886   22.69998540350569    2.37393463173972
In       26.04900377275031   19.68437271077555    3.03191676588719
In       23.64395008932410   22.91950870290112    1.99484483893162
P        24.19241148938987   21.21453214704466    3.74959694086919
P        25.48172130724493   21.97723275929858    0.66332605990743
P        29.12172351614097   22.57069600706247    0.95663490899021
P        27.72815298434446   21.13012991183095    4.23648678352495
In       22.16249939235606   20.61072215878796    7.25507521867187
In       27.51339211780861   23.54070540071091    7.24834639532904
In       25.40737107830051   20.81355441191947    8.43186872309677
In       23.98759214583257   23.80506744752395    6.89195079753837
P        23.38600491689129   22.22902444827693    8.68192745548844
P        25.80098056507546   22.58975521068238    5.70782303988522
P        29.40964653039903   22.70958112317490    5.85073313811777
P        27.44832851673169   22.00623312226854    9.18282464636139
In       24.07850818360074    5.25482195923091    2.58153783391866
In       22.04465866505005    5.34149467260627   -1.11139966744536
In       20.31546301918241    4.55186158228470    2.52693734141318
P        20.11933206540810    5.64220982612396    0.33251011353549
P        22.04592189382718    5.61300557692492    3.97207729296908
P        24.72022281360065    7.66925459212894    2.63726203169844
P        23.88701190915074    4.47112366039821    0.24588967066094
In       24.65755568934580    6.94707942031858    9.03984474073921
In       24.63901141155298    3.45405997478223    7.16275617689022
In       21.17224796689612    4.52636382500903    7.42816296668845
P        22.58967499052730    3.27245182653459    5.85892452017057
P        22.32433850209682    6.08579264340856    8.95367414558840
P        25.14782576262641    9.33464985162440    8.47366317641505
P        24.75352019359288    5.88908756287060    6.78903972349028
In       21.52484741564184    7.57327014508247    2.52066500683135
In       27.20446939319401    9.99577219190643    1.06486327656250
In       24.60112963982741    7.67795738523757    0.15293806912102
In       23.46551649794495   10.76936707122164    0.85685509622131
P        22.29597943409748    8.62132461273936    0.42031850695273
P        25.25667105905666   10.46158247998254    2.56718054883307
P        29.24842158116152   10.59762321848088    2.39896266598925
P        26.98628565950856    8.07204510301723   -0.49676238603657
In       22.12079164409332    7.99678862945525    7.36556393769478
In       27.40590824392904   11.69386788137870    6.19794804799042
In       25.54605379505649    8.94294062527490    6.06742490395176
In       23.44836432289057   11.35161289819038    6.37700663381983
P        23.15354976902414    9.06468464967540    5.37338783042261
P        25.44638178417059   12.08694735918891    7.69331814960310
P        29.45524673931901   11.95580841040419    7.61671570831353
P        27.39504519574309    9.77849539738610    4.59100523261539
In       25.83710292551080   12.88999237536030    2.32983950037463
In       31.06043514578079   16.85340726398342    3.53858009686934
In       29.33394075309468   13.06081341823390    2.81802937971936
In       27.54334917823284   16.51072191638596    2.34879036239804
P        27.70193909407826   14.22778326456161    1.38032432339630
P        28.80373922394066   17.80028587078729    4.09088044582423
P        32.62279166524679   18.57543114948647    4.42574573376587
P        31.02785758799956   14.41669012490218    4.02930543896692
In       25.84852999169457   14.53875025873424    7.32703257815988
In       30.76052786615138   17.64973373944710    7.46004345685789
In       29.20994978062157   14.37526567323944    7.03525818410854
In       27.40563142129557   17.87088015845294    7.18078347228144
P        27.49982201752972   15.73706303100547    5.84048246268913
P        29.27337177667702   19.36264712675184    6.38913723327680
P        32.32986993222681   18.63431744251960    9.09486295974051
P        30.09314860055664   15.74374516475245    8.89834791911291
In       29.53769789865463   19.93255409514757    2.96746753819979
In       34.60802287608860   23.49491842732226    1.94373412929036
In       32.84118519641938   20.19574743267348    2.51931641212004
In       30.63817490285464   23.39753591336560    2.69003304565438
P        31.27147128272577   21.41413244386723    4.04494589839829
P        32.55616973895494   24.76794609011285    2.02969101595061
P        35.08967628194908   21.22893720407087    2.73548581285924
In       29.46279407696593   20.75285023509636    8.45884510885427
In       34.69037815186530   23.23673450889000    6.19268175353787
In       32.85516221047979   20.68638197608182    7.81139645133631
In       30.95737420019087   24.01879539948746    7.27283519115987
P        31.35400135684439   22.28030077503846    8.96926162535988
P        32.88121332119980   24.84889791182637    6.01017958041958
P        33.93772206973608   20.94207707449863    5.56457151781695
In       25.88489477950963    4.56267234548427   -1.18224206904562
In       30.06804061372455    5.34476148209824    2.18957791606261
In       27.09873915106790    3.15022431104167    2.24288700874108
In       27.13341352003330    7.02729998564744    2.54718082653480
P        27.04712336739981    5.21294585454331    0.88849308704790
P        29.48547739810314    7.79522606598317    2.20938614929597
P        31.80750743350577    6.32183184537222    3.69830123723347
P        28.95497462258101    3.74731420336168    3.74177278482460
In       27.04699202605361    5.99440447523009    5.85765199863336
In       30.73843718753202    6.91113307245998    8.75196800286740
In       28.62229834588465    4.43805457903586    8.41394921230011
In       27.59137168989137    9.05248610626877    8.98793874315950
P        27.64142790380597    6.70826478278556    8.16202943640946
P        30.02430527605563    9.28311001287376    8.36755908672619
P        33.17602670660141    6.37785225639473    8.66094134858944
P        30.16802620710170    5.48143692696930    6.76004340707621
In       29.45419926120389    7.75792382422089   -0.27912896648191
In       32.50363197624997   11.01346649646316    2.82919616850541
In       32.74830763844778    7.50633056833949    1.69004228583227
In       30.53822836341043   11.03261127763895    0.29233687113692
P        31.68700044251390    8.85741452737643   -0.10258968965528
P        32.31541935374800   12.64610234357443    0.97463721619636
P        34.24435234350162   12.20848618469749    4.16833876084126
P        33.88960824899571    8.98027575435063    3.36417066057087
In       29.21154140536801    8.83078818160821    6.05888024264369
In       34.10974270274060   11.73359997954264    8.22158257257610
In       32.84563687266780    7.53854113407053    6.46954423928900
In       31.28979001753211   11.32331076187171    6.05959255458790
P        31.45638431014417    9.03207631337376    4.99015226454927
P        32.92566357388882   13.16417344884626    6.55216782933908
P        36.54009385985893   11.97712432782978    8.66491898548618
P        33.11195325954970    9.43650648963859    8.05398826867254
In       33.01396695645975   14.48768240787320    2.51341796852078
In       38.33100084675156   16.51923497790860    2.75883628202867
In       35.93218550378756   14.05476673467866    4.21950274011463
In       34.72218118485402   17.52054326527463    3.54052713320060
P        33.91326650022071   15.45413049235162    4.66596291477406
P        37.07269706887131   18.08249451467697    4.20625301206709
P        37.01999311903349   14.55813417019829    2.04719705444505
In       32.11737363564910   14.31735308447952    8.62827965000646
In       37.70319103922090   17.57344126556137    8.43248260330626
In       36.33848541435733   14.43361048951101    8.33018779641623
In       34.19471709007163   17.33268195542611    8.09063581503745
P        34.27603873729360   15.24479644295677    9.43068070569590
P        35.79816868057431   19.08853579258808    8.81418425582888
P        36.96361216405301   16.10188222771851    6.57099019306115
In       37.19786354732449   19.98045584372039    2.62177953965188
In       36.07214360435408   20.19105005106173    6.63158023491408
In       30.82589276211916    2.17269453446174    3.51393274519684
In       33.83742347730397    4.89363983817866    3.46819362617713
P        32.69029560682186    3.09415334788250    2.26291894432234
P        35.66461690860693    6.14384689957221    2.41417356005730
In       32.13211233104242    3.98497062068436    6.75576765642909
In       35.25519925838856    5.17821929967470    8.05916280956166
P        34.45201696847091    3.25911506517226    6.77034888166341
P        36.10819091233742    6.78743233942710    6.42355041627897
In       35.89180697666686    8.55236580248575    1.94031797991208
In       35.34416435556300   11.75539233349264    1.95608925855976
P        34.74023772190444   10.01131954639146    0.31467613169337
P        37.48141164278773   11.39753320715738    3.16672846634471
In       35.52569216832255    8.86822007083929    7.62170039659869
In       38.07353494896476   11.00766446970236    6.99216060842612
P        36.29807684560478   10.04882549422970    5.58284226127132
P        39.54020756176430   12.69903348994319    6.00643034592656
In       38.54671949901861   12.72863111079824    1.40232297058409
In       39.20054493414148   15.09062148294879    6.18433138675195
