40
 energy: -2.831826263989 gnorm: 0.004922059414 xtb: 6.4.1 (afa7bdf)
P        10.14012699261726    6.90522716827869    1.47125406343763
In       10.88385894935314   11.08985739068078    4.53678231459179
In        9.22912018412087    8.12670076930930    3.40022688171945
In        8.30567295107180   12.44739217873901    2.53631159052791
P         7.86590461495403   10.16471963511434    3.23481178140230
P        10.60001465822591   11.62206691870586    2.13071179791517
P        12.74498996926905   12.68485566897682    4.93089239857910
P        11.13694481227801    8.64774440057386    4.88926922299458
In       11.33316455064713   12.62129428427458   -0.00995303911137
In       14.83348066200003   17.78589308924075    3.65700647842358
In       12.78073082421629   14.19716770804696    2.95210662968293
In       14.05090640758635   15.46230321327819   -0.23441012611496
P        13.59675238505533   13.25493134229566    0.78086710581696
P        14.71184436738633   17.34840510637371    1.21740157734221
P        17.08308457421279   18.70686891150479    4.12388290463923
P        14.27427767080233   15.50262775004694    4.44740884333451
In       12.81269617912320   18.93912263252274    1.11880813117459
In       16.47151227661806   20.89867317768747    3.15245928356935
P        14.33585733321908   20.63440831409840    1.97601494226486
P        18.67633424751374   21.24824454668416    2.13336809296330
In       15.91509678513343    7.31097407272456    3.86674092293078
In       12.15941070943311    5.55105339746245    1.21695995602160
P        14.06016546850180    6.41786621471453    2.52608381825204
P        16.93007636403938    9.28592632135098    2.83412695481995
In       12.62275035863110    8.40932222489901    2.92030150902334
In       16.87593980560957   12.38150022937342    0.81391894075318
In       15.34935353072798    9.44633951400001    0.95566726645043
In       14.44092434076168   11.35969362154382    3.71043242331056
P        13.20586338260434   10.52221299709229    1.72492377060661
P        16.69455355435756   12.30929863575280    3.29365010404826
P        19.20111448456527   12.43584113813319    0.01487887134552
P        15.59475324041243   11.10155028676365   -0.85987380864641
In       16.43373614458197   14.77138225410802    3.47879569303254
In       19.59953961832273   15.86033098384607    4.46351044414963
In       19.31920640675895   14.59663544765914    1.18752837657175
In       17.98655023437668   17.99685132443713    1.93204358189515
P        17.11886090956779   15.75556229000149    1.30246467662027
P        20.26652225480024   17.56704278637378    2.82141323420650
P        19.52935401837904   13.64091736876431    3.44152308197770
In       20.51539618617704   19.99261517330894    3.10528930748421
