36
 energy: -2.393788327541 gnorm: 0.000160784560 xtb: 6.4.1 (afa7bdf)
In        3.45578267914570    1.93300008649584    2.51294068919092
In        3.58216080668044    5.22067126661215    4.05766095627595
P         2.91928985467799    5.77198553413202    1.77842808350704
P         5.11123680152714    3.30676338024856    3.65361039474199
In        3.20829762256702    7.17275623694447   10.34617395977220
In        1.67011455805515    4.93215468716023    7.58748967560444
P         2.80091207055416    7.06977976069033    7.88580399160155
P         4.15282653952381    4.92248896884113   10.61001552897073
In        2.81424932070490    7.84273212618307    0.52871165567339
In        3.04252451179291    9.32812264742346    4.28939270517630
P         3.06091746717366    9.85015808735408    1.88731292846496
P         3.93420658438095   11.25720137726062    5.54178832659226
P         4.48148073244008    7.38201112051710    4.86212034357149
In        1.67524570684834    9.26301036159239    7.88446156504834
In        4.56858746959846   10.38133496083928   11.20079122593558
P         2.79133678009570   10.63433974717786    9.54128055064253
P         6.21876985440115   12.10530518265612   10.65318331848773
P         5.47675729271507    8.17904349309854   10.47948266837993
In        8.39412516646104    6.66366777181444    4.10153975574874
In        6.62295420842527    4.14071415976485    1.91152716998001
P         7.47722692356626    6.43180707279270    1.82064165540635
P         7.34063714506170    4.81386983403500    5.30667859774699
In        8.14882100144991    6.94482958387443    8.89550652568230
In        5.31259939134441    5.10354644524638    8.46006168270513
P         5.54142356776498    2.91513401775398    7.39343226959838
P         6.38496986628470    6.95447770185666    7.13335015987023
In        5.57074187938340    7.77015457396810    2.66834525326621
In        8.32375185619963   10.28129889760393    3.48883021298437
In        5.00110856338014   12.25102494899626    3.59593917150518
P         6.00223909463796   10.21169167033629    2.66261268751497
P         7.57478130286760    8.72616962364280    5.23885068219401
In        5.46056072492553    9.02998091299753    8.16791518230248
In        8.73897346675686   10.61526726774770    8.22085900655151
In        5.80068237821261   12.80148165705503    8.37530790443590
P         6.61203959058390   10.91959818076674    6.99878624129345
P         8.36466221983537    9.07910665450795   10.07588727354868
