120
 energy: -8.540129225449 gnorm: 0.000163648134 xtb: 6.4.1 (afa7bdf)
P         8.97955403643305    5.34440200556778    3.70402267870261
In        7.45232792373000    4.31189559755736    7.09178007168040
P         6.95690187440159    6.24073602691138    5.62736422961002
P         9.24734097494535    5.23216973382496    8.54011672030641
In        7.31567483576155    4.18390086303595   11.82123588034891
P         7.15984973159731    6.22632438572650   10.44167971785714
P         9.07679649923190    4.85093612098800   13.39699123137220
P         8.77202246409784    7.23980426775289   15.75261098758550
In       11.07800404652865   10.93267165732499    2.53875343214069
In        9.18399022247867    7.79893463945054    3.53840058805524
In        7.01893562228194   10.68371038035693    2.49616525128292
P         6.90129620878395    8.66894867046766    3.84908940193311
P         8.96734792575429   11.96794848726970    1.76419838039586
P        12.29894135052411   12.26215318578663    4.23512812901954
P        11.05748315963062    9.21605318837642    4.33367358291388
In        5.30662690960497    7.29287530974340    7.12837993988018
In       11.05937235009709   10.51610068826162    7.37594425601514
In        9.07199800059093    7.53833448919444    7.61695195970327
In        7.04908654470092   10.54615593176998    7.04781929569552
P         6.95308399422546    8.53584057751754    8.50460691173222
P         9.14963688841558   11.22552359156549    5.94356258785408
P        12.46629749724960   11.83909954292285    8.94567185096744
P        11.07022850552041    8.46328037993999    8.78124395579644
In        5.96820854158612    7.28746383369267   12.34020259531780
In       10.73829349124734   10.02756766776153   11.95333197854222
In        9.23860575875151    7.17270151493270   12.53245528640276
In        6.94344018327047   10.42004238275015   11.72157810600468
P         7.59832134379530    8.81199132967044   13.47791923225379
P         8.86901152867186    9.66226871339311   10.32517387683669
P        12.21784641618097   11.09834861269237   13.66750669135015
P        11.18266249980618    8.24366768991424   13.65989825138096
In       11.57642709052978   11.72885129513727   16.75811160652523
In        9.11059687398370    9.06990118282745   17.40055678308774
In        7.45427532927881   11.72005343056805   16.07577981928760
P         7.83186578675484   10.94229081740562   18.34685450914486
P         9.70956636852256   11.52730106704578   15.07401829223997
P        13.91755778649768   12.14181186898071   15.87415256260182
P        11.42177268040272    9.64286648220177   18.09325140316719
In        9.27487024864029   14.38850454053535    1.96028326480266
In       12.91980764028749   14.11958599132533    2.71810150237836
P        10.93003612311236   15.38153225160775    3.43654315347893
P        14.98176905276808   14.96442741073117    3.78036291817288
In        9.04476439314259   13.66848738701041    6.22147788568188
In       14.56323942585658   16.70494088780000    7.28092018913889
In       12.58257204601087   13.77526006604305    7.38542824893726
In       11.06303826817411   17.21265168655826    6.77183612357477
P        10.45505450180473   15.02264161311322    7.70668672782006
P        12.93514188272630   16.28990339457041    5.46755526220273
P        14.46774775072041   14.69174251665315    8.73918175216096
In        9.15689027603350   12.13146024063484    9.91168563487077
In       13.64379544988388   16.29393045967129   12.14810367708709
In       12.15920136350754   13.16311117378904   12.24020604252470
In       10.09839808357601   16.22405330377648   11.39035796376886
P         9.83887877681277   13.78428432489481   11.60362551096559
P        12.20400571594116   15.71860626741438   10.23196752473529
P        13.81690377094810   14.35255077338644   13.67960768397305
In        9.76433916790710   14.01554670871145   15.01760111485311
In       13.76533609526246   14.37330274528843   16.99407265500409
P        11.72974665569914   15.17975070412860   15.86582193304086
P        15.76838407902003   15.58019266352742   16.23139838161639
In       14.29101321669296    4.47753089430046    3.29725049529670
In       10.72364217524156    4.75113329165745    2.09983609969640
P        12.15396792179489    5.51925412796551    3.96823538696701
P        15.20058993038631    6.02903423745125    1.67009896368435
In       15.04996299442619    4.40526775320838    7.35715094121292
In       12.32115585645102    1.23018629624184    6.26171505847334
In       11.18455001924360    4.54508163383018    7.11721020068996
P        10.93769806325486    2.95341267241979    5.25207594887028
P        13.06724106506678    5.13394815336597    8.63726188020898
P        16.10044154352600    6.09806486480203    5.93924833647447
P        14.51242206644812    2.07757858910668    6.83610239396583
In       14.52748043878957    3.85887857727121   11.60281131212417
In       11.24827278319976    0.78788369747822   10.79311758695023
In       10.86549601517179    4.09114642701818   11.83666697533737
P        10.12869821549060    2.76107986745846    9.87915879656432
P        12.84956289083983    4.72655340293775   13.19989137024178
P        15.25111247755332    5.97132393627261   10.53582609874618
P        13.29442174842947    2.07244321201115   10.46285386279138
In       13.49940256890042    4.67741567921602   16.78966229580172
In        9.84072179666797    5.64336316925193   17.28454019153396
P        11.77814259284988    6.18045855101371   15.84189902596450
P        15.01640370259992    5.64603326722367   15.12759703021727
In       12.78954253564650    7.80756648061717    3.22092240156671
In       18.73215876569762   10.65179204106363    3.33358451133536
In       16.07626633578050    8.19681325570595    2.41528855349746
In       14.44428484946451   11.09095329111544    3.81701454532848
P        14.76045515818069    8.70932717914632    4.46804112296837
P        16.77309868476124   11.95647285949781    4.07338007696784
P        18.31358538757642    8.25865970529150    3.42171359047905
In       12.98246198614315    7.40027928122218    7.58968229327311
In       18.44609307076626   10.91974542955878    7.63744277038949
In       16.69295755831938    7.83939921900655    7.57260899739811
In       14.47292433872792   10.71413417358559    8.01224315857094
P        14.75094569377245    8.44065199684545    9.01026813933796
P        16.52896791475157   11.75371329540016    8.98508034564259
P        19.66509540907179   13.04522189360299    7.68469133687957
P        16.83623825818186    9.82760386467910    6.08745567862769
In       12.83841838853567    7.03692232805222   12.24329060515523
In       18.13356022524094   10.86390462883875   12.28071412263809
In       16.52872457230248    7.43618847178070   12.08607428206321
In       14.34530512230214   10.37939557190372   12.57323475621721
P        14.65076634776909    8.11612985925426   13.59139405510775
P        16.23150378412130   11.55930742532140   13.72062624777977
P        19.11723337440246   12.99679944390868   11.58573351030694
P        16.70801085504543    9.53345680225888   10.75029581012634
In       12.85732769144930    8.28639019066301   16.60654878291967
In       18.30750239695924   10.12865608055113   16.81921933873813
In       16.50081756221258    7.00992971747769   16.56438786097949
In       14.81379320487538   10.77599601843685   17.76751409911598
P        14.92413553883558    8.29780688523368   17.97296528757132
P        17.04398046332091   11.83676756654736   18.04513992800958
P        16.60499426304533    9.17010125616142   15.32858267275711
In       16.66174121529838   13.80178034953847    2.44349652106401
In       16.27147887557605   13.63461899660447    7.37114782869843
In       19.27918324090613   15.42238688198943    7.39815888538565
P        17.39572151124325   15.22880103148968    5.86757453193095
In       15.72454355600724   13.53773900723175   12.27172451058501
In       18.68095290486369   15.34281350641653   12.06149776207828
P        16.69124233769248   15.15058041517527   10.65414818307059
In       17.38334374800741   13.82895103122787   16.66509545777486
