46
 energy: -3.026996498890 gnorm: 0.000695460763 xtb: 6.4.1 (afa7bdf)
In       10.43433487758416    2.78396779443943    2.44005713666263
In       10.41977103809964    0.53776873032173    5.73845219501827
In        7.98471538905561    4.13605301686706    5.12288000474998
P         9.22543391617271    2.52536066100330    6.43856221944670
P         9.56006064297980    4.89580336129181    3.36977347033901
P        12.11701118962413    4.13749447171155    6.58952507379066
P        11.69303162525057    1.06029611123448    3.68203156278535
In        8.72452342317242    6.25524416449779    1.52577096811493
In       10.65894464856263    9.53647926099777    2.41352288219246
In       11.14511629355480    5.82694287255294    5.07372086700318
In        8.08071980361495    7.99261098982566    5.24716452993702
P         9.67849670324199    6.93589145946534    6.71796773801776
P         8.53430797532851    9.68701027270775    3.58288362903862
P        10.97768356187167   10.48882776992913    6.30130024635957
P        11.84736933332621    7.64420222949903    3.48585155612790
In       11.93642874335065   -0.80133756192133    2.11722534670844
In       14.28469310553162    2.57630513082869    1.45939665557163
In       14.88734787880786   -0.68484730624803    4.60391767528938
In       13.19202350189930    2.54828382794327    5.03866173211628
P        14.43527790762184    0.88762244779262    6.40703595023926
P        13.70430799523971    4.21243872815996    3.22645104338705
P        15.60958352961588    4.17942842186488    6.48666368031555
P        15.52351343157878    1.04452640235390    2.94951808921530
In       12.52592078100385    5.91770537354986    1.84942032810603
In       14.07302861636939    9.14723154928355    1.72632065177325
In       14.51520589755206    5.81866744239563    4.98011863450054
In       12.76542380803212    9.25193301179067    5.17349157953273
P        13.64423815358594    7.45196126779293    6.62509290284055
P        13.74482754787307   10.79646834498318    3.49602711054947
P        15.95150981018237   10.96076287805983    6.27674968553559
P        15.13878604501068    7.41666594376446    3.15503795906485
In       17.71344021196413    0.54114219728437    1.96405670282098
In       19.76203835142021    4.05440353074748    2.31701503310840
In       20.03986143189608    1.22737891852902    5.27391130944958
In       16.37092499098321    2.75931663423106    4.60224497018552
P        17.69012567723888    1.07837955730409    5.83620853507729
P        17.43800985864241    4.42465545592923    3.07265346037434
P        19.09306263042266    4.31947121791602    7.00221154874845
P        21.04942765450439    3.11141188295496    4.13907941210409
In       16.33022400332539    5.98551303429687    1.53180583789445
In       19.30739865198135    8.38853952831743    2.39130812563394
In       18.25919664305895    5.64340335442859    5.11836759254175
In       16.18701453603122    8.98953518372365    4.82489026394840
P        17.09973582425133    7.37109232185785    6.44709514547876
P        17.30928802526260    9.71111005796532    2.74443306459640
P        20.10936683433532    6.98526055579191    4.18754589373835
