324
 energy: -21.784141320017 gnorm: 0.000750814634 xtb: 6.4.1 (afa7bdf)
P         3.79572831604519    2.42542628426309   17.24182583385588
P         5.37203660948338    6.31571989680405   17.25352906286982
P         5.42037049819354    4.26564701595476   13.85710206070307
In        6.47661531627199    3.55339992174621   19.76990224433544
In        6.56815442729893    0.40037992650184   22.22650028394541
In        4.07297779081780    4.12216556960846   22.89668742843142
P         4.60927187168070    1.80450644421099   22.45443000910588
P         4.74790832742996    5.07038254974773   20.70696102828684
P         7.78099806523990    4.29394460784256   22.80896185100292
P         7.76782314468044    1.50966589873904   20.35554278925585
In        3.84857136365397    4.24496711770627   28.46209600416733
P         3.65551137526262    6.66632175897200   28.09075877710332
P         6.67802192408748    5.31085196503477   30.58930750656468
P         5.59897900704774    2.55850934867358   28.17444480334908
In        2.75183799926172    9.22703141549632   13.14289491266589
In        3.39455352630637    6.28120433815991   15.78967734241585
P         1.34659715372515    7.43523632061125   16.41131211314300
P         4.10801827508112    9.59789693877504   16.55314291778867
P         4.24346067252840    7.36227363284593   13.70749777172631
In        2.71263219315991    6.14274456508470   19.89960331710451
In        5.42866029090310    9.10885905467732   19.64867909574800
In        6.70644905355820    6.25345166202791   21.75221639542838
In        3.76641802311725    8.90475658529902   22.59682158769744
P         6.03876470472428    8.19860658183647   23.11252659606907
P         3.99780290825220   10.70908706443437   20.87668058272189
P         8.15177662460238   10.77388341114473   22.57024198828080
P         7.30104576622016    7.51237256834225   19.64408255916107
In        2.91121659771329    6.94573223132830   25.80138619525524
In        5.93365234237730    9.43136779113994   27.04687624576161
In        5.42679702480526    7.23511794018011   29.71984817560556
P         3.65966693176309   10.09329985392087   27.65291528090555
P         6.47001638776604   10.50413509575843   30.32407968835592
P         7.23439021417913    7.52201036431464   28.00657336384829
In        3.28096675875157   11.88961512261483   16.26581779846408
P         4.26422155042656   12.73069722148857   18.33151769336753
P         6.66089686801829   15.52182403793415   17.75083763046454
P         4.04023240793995   13.25137903460213   14.35304162891024
In        1.71268584112728   10.61640196519590   19.97367287614408
In        4.47099606499569   14.83049784511631   21.27605788171900
In        5.87325216900874   11.68232264915000   22.25024558178848
In        2.52350778358790   11.83890627357236   24.10579139043064
P         4.86222327217369   11.25686119063234   24.48568346531565
P         2.77813513570843   13.39317110471158   22.26046046890675
P         6.96059867673988   14.18764169714433   24.16410540658254
P         6.40503510687364   13.46898527260002   20.52911650057179
In        3.95390872421491   14.75987442089293   26.46958171348667
In        4.62447561106150   11.69312423525491   29.24268095669917
P         5.52703495903982   13.14998449724106   27.41902437678164
P         9.12094453883138    6.34792542537963    8.78177981152961
In        8.73335900907456    4.74119965782877   12.41010746887539
In        7.89726056685155    1.84971948864924   14.99775920978780
In        6.79085109524272    5.65547348856250   15.32411159058580
P         7.87776805398795    3.76462358222474   16.48518644305998
P         7.91962575967773    6.87095882894967   13.42107669072631
P        10.31221927875794    6.21585280301137   15.72612075696094
P         9.59088292131197    2.63018599432137   13.38948252430042
In        7.40337841468187   -0.00940780924772   18.46249529097186
In       10.35675090956964    2.59932804875874   18.39210124972006
In       10.01873775521203   -0.75426791605514   21.22692848301015
In        9.38468136960704    2.62303456555622   21.93244229835181
P        10.39149178532947    0.69019671593653   23.16132378456962
P        10.34680579880493    4.22549221352000   20.25368641937098
P        12.69751254978311    3.42954541147296   23.12378583982892
P        11.17213988922108    0.52191304040429   19.45123283617815
In        6.32735476117922    1.82900590501424   25.99019972404518
In        9.98657710844353    4.12252773474978   25.45657359044615
In        9.95944145194865    1.08739932967836   27.37993828972784
In        7.58934172391171    3.30432222224109   29.47679556005366
P         9.90249852769295    2.36745751580885   29.45360523108237
P         8.43925268636028    4.38821233733556   27.37448291751690
P        12.02188122887943    4.90492455917870   29.46966607241519
P        11.42265515637202    2.09089093871884   25.62508897510594
P         7.43071957396294   12.38241374125411    9.00889474372172
In        5.96104321899886    7.16589990433932   11.92196729405488
In        8.41106136915412    9.59612261598713   11.39335816424175
In        9.25653903031354    8.31516116365262   14.97014843740984
In        5.88999896362530    8.70248176217847   15.09700301654778
P         7.69764404520776    9.02254494010281   16.79778267606701
P         6.81286317866826   10.06864125174920   13.21930697913131
P        10.30532969147184   11.20613623065454   16.34710720118459
P        10.33234934856774    9.40781257554230   12.93972749509893
In        9.26506439308700    6.11946940570177   19.08357409105493
In       11.61178952514326    8.76667953191081   18.73293190531729
In       11.66909196085911    5.44004732633719   22.00037218896207
In        8.79697420813105    8.78765178079291   21.23544658596660
P         9.81567053796521    6.98413587344564   22.60472618565168
P         9.51675601829590   10.03752513227768   19.14805430699901
P        11.70696334503356    9.66102304885557   22.50889102743767
P        12.53682460576907    6.98642649555247   20.20091175896448
In        6.72510739911462    5.79835036813533   26.30037789268897
In        8.97888830250540    9.03117004054942   25.60478494833385
In        9.79169705142313    5.80113892541709   28.94442001557325
In        8.36824210844406    9.12712860307520   29.56061317828719
P         9.42332795728493    7.31534628210565   30.86235645005875
P         9.12812272327924   10.49230690182644   27.60199108384384
P        11.37317549180211   10.26601052006485   30.43196114769344
P        10.09111795207708    7.26748231709283   26.93202075892079
In        9.19248102284650   10.59057903938044   33.68800813294230
In        5.46803227272674   12.09346084620993   12.73706385275499
In        8.48935510574578   14.61911091667774   12.32422130867868
In        8.42759618139270   11.33333472472300   14.71066492762253
In        5.78823088804620   14.29082757363346   15.80548849793564
P         6.60387058919485   11.98966311851176   16.26307486798103
P         6.78989727076442   15.42139107355333   13.84761631589275
P         9.36414811951949   14.56554923526730   15.87777202053970
P         9.61368940871682   12.45392350025645   12.81183611992485
In        7.90076404577443   11.92095306398269   19.29705189490036
In       10.27972949931235   14.68432809077918   19.11243373307595
In       10.98014253191135   11.29754265331566   20.80833840841768
In        8.21926929887997   14.30533279444176   22.06778764742981
P        10.46557574815609   13.26075992322314   22.23631610360353
P         9.01933730712834   16.13268198707679   20.60802700467330
P        12.66713356848844   16.25198238115566   21.74644614692555
P        11.88214566625854   12.79493276693375   19.00211323749876
In        7.81668545009410   12.44476327558082   26.81260101936315
In        9.57143127155408   15.50387818269243   26.31265731593920
In       10.28838931993984   12.09055409487225   29.15156483347700
In        6.54784228012195   14.52382005314850   29.25097933495385
P         8.36650848724825   13.20323740738321   30.21382111305884
P         7.58700099784446   16.01847787349629   27.61623019808577
P        10.30893215401904   16.26083331867521   30.10026238852618
P        10.89715710116988   13.61680029381851   27.24133185222617
P        13.33891183551696    6.07732601204804    9.42812713974742
In       11.09005002065550    0.78680957892130   12.82863505457975
In       13.88127021404279    3.39371806373552   11.88948295708387
In       14.79575154194596    1.59277194073488   15.05925180155344
In       11.06530611256292    4.03410271092443   14.86395589476242
P        12.69727602485252    2.48355400852173   15.87969351365236
P        12.15651824149890    4.91635695120248   12.78661843289417
P        15.10383249498321    5.17810432266925   16.13871307387231
P        15.84294196925835    3.04762529573372   13.35249390307443
In       13.00839363273414   -0.54722894707197   18.24652572612826
In       15.74671873331512    2.49048005055768   18.62467611924887
In       15.73607774438761   -0.73835663711271   21.05137522200955
In       12.44426880532718    1.98505522098889   21.08723247598455
P        13.55159608872945   -0.08149561068924   21.86291713985131
P        13.54150847715583    3.37396920494533   19.32248401071134
P        15.65679488297426    2.77525362672395   22.20156255364883
P        17.10448106861770    0.61330771933792   19.50725664671836
In       13.21346556475503    0.39294198282991   25.45366267716072
In       15.79002322317178    3.56064068355286   25.77028672680222
In       15.16499066739372    0.82780867615477   28.97873998210332
In       12.46552336340093    3.41343416211289   27.54200722058444
P        12.84128885056598    1.54553865255756   29.14808309347859
P        13.61318806229687    4.78459318033672   25.74126298592416
P        15.19211578131939    4.40242369261085   29.27119350958921
P        16.71107493091236    1.87131272636692   27.34365454283537
In       10.12044376798769    4.02912035761875   33.19683081470035
P        11.61215584017514    9.45688247459984    8.38716749681191
P        16.70051445492230    8.60799023904657    8.81248308125460
In       11.10684029266847    7.11676802234903   12.33726518869167
In       14.13101923074804    9.24119597064787   11.63137653173805
In       13.71662992446436    6.14890246709004   14.34410365704281
In       11.89790915639599   10.45903163055617   14.59020516558836
P        12.87001045735540    8.28537324395318   15.23311186149085
P        13.08417216006228   11.28675907765363   12.52818592306513
P        15.52068298708946   10.20623302854261   15.15697603572378
P        15.04735381537862    7.09383159380982   12.43219698855529
In       12.55477387813793    5.39563213470974   18.30201274112345
In       14.86204151925593    8.19826255417827   18.21480410228896
In       14.65784198415341    4.74934875819164   21.11950014027189
In       13.73335767862160    8.36418506981109   21.92064287919633
P        14.61287755416105    6.32052251326449   23.04688812734442
P        14.79443176175412    9.76746263618781   20.12907181666359
P        16.81332759398623    9.08132018887700   23.27510415076108
P        15.72867280899422    6.23533366291877   19.42881657945910
In       12.14196242529030    6.79937014213363   25.60810725941057
In       14.15346256562925    9.60798331899822   25.50782726497926
In       14.64521461454100    6.14199555476180   27.60002836401716
In       11.48677126301920    8.63607208854220   28.55955706530026
P        13.65857086558173    7.69071715245579   29.23428221414678
P        12.03364812951220   10.17217219017720   26.67024531444597
P        15.29052907026837   10.42738164773439   29.13207187599200
P        15.59309072670369    7.58142945360349   25.73669583586047
In       13.20235083648311    7.41311601722070   32.98589845440754
In       14.81030557432211    3.13901967205275   32.90929839089447
P        14.89445474424885   12.25923932051540    9.02903310288808
In       11.33801484816367   12.20398526855460   11.05125568701696
In       14.32001373743428   15.03480053949757   11.76618253489750
In       14.73879583372422   12.28716739832404   14.11565386044373
In       11.13626534846178   13.68963446176620   14.43076270580779
P        13.20056143301094   13.32055031586391   15.73489189906608
P        12.21168752395162   15.31050635362080   12.91465319635652
P        15.41844663734514   16.00573088355738   15.53713240958675
P        16.14665596796567   13.51539270271005   12.42707745509684
In       14.02953750801541   11.59657925183996   18.63139245023618
In       16.52606648558680   14.30009609358908   18.78399965678474
In       15.96708848532344   11.04780418028029   21.94843786382283
In       13.24608071034382   14.11090646835101   20.68637560525656
P        13.81628795754059   12.26382512074096   22.23880888144743
P        14.20555068325469   15.01470191364247   18.58079403668419
P        16.15881622418735   15.06532696938430   22.22558952075169
P        17.19859166469516   12.38977695350281   20.21258275933585
In       10.93714867718343   11.97801956782696   25.37719279776484
In       12.78526652054713   14.99540731824728   25.04397252114225
In       13.36119862194789   11.67187944684686   28.23431628957014
In       12.07101879627537   15.26004855384272   28.73290099552564
P        13.13227886216019   13.40771346312801   29.99980499262922
P        12.76199998075511   16.67688658450806   26.81096426441222
P        15.37869576350434   16.67474473998359   29.39394859356883
P        13.89187752553206   13.20391511455229   26.34350796187105
In       15.19166753207016   11.40257118076351   32.86479741094068
In       17.63196768956118    1.90404419410708   12.14609564883333
In       20.54184341830486    4.60288407599150   12.33502319766123
In       20.40313652185861    1.92411709758261   15.23570893842409
In       17.13138363112481    4.56761721128017   14.88406841231361
P        18.45167064512361    2.95904746575054   16.20917513575465
P        18.54400659864568    5.77806332845612   13.20071274923212
P        20.98199999943564    5.53322742540431   16.56747870057263
P        21.90082741991715    3.12781702611780   13.72645759003142
In       19.20310400670806   -0.28002022628583   18.64613478163979
In       21.64108671916031    2.88988677686651   19.23593124111229
In       21.36566985197707    1.20777190855650   22.57503847202076
In       17.86950520679393    2.25221003700082   21.25052659232895
P        19.18364125283245    1.96965705192839   23.31658265636417
P        19.29620936298696    3.54611887139968   19.63673096139392
P        20.76227670558242    5.33915050751265   24.02322293061709
P        22.78844746222490    2.89718132704126   21.44052851526091
In       17.39663448827660    0.00491613026384   25.90947345040637
In       19.79418694306427    3.02992512198551   26.50861934508720
In       19.39057533949483    0.36305948190015   29.51920532678361
In       17.50911739053718    3.62168585435185   28.97641376082374
P        18.50344102555428    2.24055827233135   30.75796536103474
P        18.73031192874566    5.08080772311537   27.35707353360549
P        20.77444668335938    4.73875075405156   30.27326827385404
P        20.93000036655165    1.26946608577791   27.81553742478275
P        19.66273210906801    5.48654301536147    8.37984791650314
In       16.89326217581205    5.85732445022549   11.36158156192703
In       19.94257294095097    8.43514838298606   11.38645405420423
In       19.75752113062305    7.01413362693276   15.01875802387114
In       16.42294656386740    8.07216887884190   14.31526806078378
P        17.76187041256571    7.63414482114444   16.34542871279636
P        17.96119513401057    9.15679293974106   12.66083956672953
P        20.29795739826212   10.01945402394948   16.68876984314473
P        21.30021132724421    8.23060112608456   13.45057534837769
In       17.98933811987130    5.45597892210820   18.81660404438757
In       20.52247962150591    7.85224854191731   19.35645479430333
In       19.96144615108190    4.75203243826016   21.74510385321399
In       16.80296675101708    7.58935303079714   21.27178332077975
P        17.65422598257210    5.48206328942045   22.27452435444310
P        18.23725447843811    8.78782860841870   19.60298615495170
P        19.84117015691090    8.11654132459001   22.68578661591977
P        21.69315813459763    5.90995910602206   20.37644118954157
In       17.79089858417937    6.44388345037223   25.53795479055496
In       19.64333273242138    9.36162872356130   25.92105502408505
In       19.41938862521615    6.54189652252708   29.27788311050626
In       16.54789593584604    8.88348268921509   27.67906574081810
P        17.06361631840953    7.26098349260484   29.47451741388932
P        17.43872924535421   10.51152874355607   25.95365809448110
P        18.88237632309004   10.16187763815614   29.57979013531067
P        20.68771316982212    7.81872012211141   27.53258644732013
In       18.02555027092970    7.13091208108067   33.21309190274458
In       17.33031721393607   11.41910265038125   11.85325710225214
In       19.84759652813574   13.69759802917901   12.22036631275325
In       19.00461072147666   10.38342234667262   14.60708226021776
In       17.14124372565524   14.65289048145009   14.44032783048046
P        17.97947436592567   12.51446612058866   15.32508292342503
P        18.65621371464216   15.73405211429476   12.81427696738359
P        21.04971099095597   15.08487293611174   15.34527511171601
P        20.63204121126135   11.48718891167175   13.04765991037195
In       17.32897760256822   10.73654777072287   18.38053238764941
In       19.80718071738407   13.38388275316800   18.57216504464027
In       19.12327702399703   10.17774991689722   21.52016071108519
In       18.28086965388492   13.87835529587337   21.91873106694806
P        18.89828978472229   11.90031786955368   23.30205549279872
P        19.62078672193869   15.13802184013546   20.25396318081369
P        21.58691079524118   14.72241433134069   23.49766206012477
P        20.56975144275243   11.48486020630333   19.95669606383255
In       16.04655813041802   12.48280028232216   25.35076412813589
In       18.50635594329572   15.18521817754524   25.60351362589152
In       18.14788553088842   11.86007913262586   27.96047357594387
In       15.23000074198199   14.76663413896099   27.83702117799537
P        16.64972912967437   13.32893072000868   29.23857480133946
P        16.19748507068987   15.87528078816012   25.86582915145685
P        19.73330537321601   13.56120865808350   27.00308597509077
In       19.85768315336261   12.05516646458146   32.82967567659733
In       22.95014359170570    4.52448449601453   15.49847554914772
P        24.41821000430976    3.08832577069351   16.82668459828049
P        24.64823068449105    5.83181995501066   14.22980228498766
In       24.95081334040597    1.88325501513426   20.87008499896978
In       27.24599343844151    4.82735330066199   22.38869912655641
In       25.24948282401967    1.86950417697079   24.88152116680906
In       23.01229027871524    4.51682193050877   23.35135066004884
P        23.10363136125282    2.92925110522577   25.26052085394221
P        24.93816841126243    5.72453391006651   22.27409395415560
P        25.90786279724414    5.77890429355326   26.05355543222372
P        27.18032122596649    3.04648338119092   24.02956145429124
In       22.00360873752654   -0.50610559845836   26.52990045397618
In       24.73160356302559    5.23592770542042   30.03919356304746
In       22.07705325519904    2.92328470609550   29.28625128563536
P        23.80890160112240    4.20708272945929   28.02621055434374
In       23.40240079886421    7.19819041093898   12.64000431776007
In       25.47817838001547    6.96104026225582   16.23113879141694
In       22.33023350710948    9.39924034534772   15.42507844024358
P        23.41788904511044    7.90994397007149   17.06837165469083
P        24.06039520526030   10.47392248960377   13.99275522936350
P        26.31614679598335   10.23878536231992   17.84496765914147
In       24.09949095567431    5.49925796636558   19.94833896330256
In       26.35301158983409    8.10307220283127   20.72156819336251
In       25.30513435174005    7.28072998489435   24.21199642891371
In       22.20253799150413    7.48412365247318   22.28128365906915
P        22.94962555230234    7.93614148339635   24.59505442848909
P        23.93810451183164    8.64063615797596   20.90879378116604
P        25.13838088533361   10.98213575480359   25.04465124137035
P        27.10150053661699    8.50359026672752   23.01201268432763
In       22.05987351137447    5.77611439102091   27.26056115061049
In       24.76048556876371    8.97694967334943   28.21087427337399
In       21.24672980819939    9.54456201045612   29.27307673802973
P        22.11908442308051    8.20290903414382   31.11931932919341
P        22.84081909119126   10.27100878936724   27.48513348395831
In       22.80829986951289   11.02719706511357   11.96152906706492
In       25.21929976490696   11.34612631382089   15.98967286593134
In       21.58619698850791   12.73558263932125   15.00999055695129
P        23.16225533192757   12.34451845976541   16.85137427282099
In       22.84744024102113   10.53202575161246   19.73034504015702
In       25.09256128933984   13.36394736205227   20.18667442141907
In       24.39898539000386   10.25142029256365   22.81505890573362
In       21.48226297259959   12.91460977033439   21.83411175771639
P        22.03400406172827   10.88217972201678   23.11885952450901
P        22.79593836273271   14.13405921279119   20.13440772988145
P        25.98806307419510   11.44389492143663   21.36032646259095
In       21.79757013166564   12.28224914984541   26.55432659986050
In       25.39554517134036   14.92566497650819   24.62581958457314
In       20.18700408143342   14.74297126597529   29.10817397565111
