68
 energy: -4.459826176950 gnorm: 0.000097654804 xtb: 6.4.1 (afa7bdf)
In        5.15669739924043    4.75415800154890    4.75884002401310
P         4.37832857033262    2.60685737453738    5.48837098953916
In        2.83416293953902    3.51807391730844   10.66971148048033
In        2.58960312110997    7.07223458248432   10.11234299601518
In        1.68583926269999    5.09051893250681    6.98378665149581
P         1.98500525713429    3.17037378886998    8.41396371597182
P         2.71021327145411    7.20877915659792    7.64917976470372
P         4.38078035183882    5.46503822871414   10.78478460673342
P         4.01289078950735    1.47248465637468   11.37067002528921
In        3.64442825843800    2.17241812729857   16.58729169775127
In        3.27405378189543    5.90816076455476   16.21973465168712
In        1.26541872268287    3.93875161429375   13.94125436220961
P         2.69395252794696    2.01053967860153   14.33913516377925
P         2.72447049587083    5.92516793183269   13.79804867705703
P         5.02804809338421    4.21876501033438   16.69320907500949
P         5.66197413266687    0.79456429484744   16.81072613858295
P         3.81394344817207    7.31368580018347   19.95028348344401
In        6.16826356348035    9.26400836777496    4.33252704422758
P         5.53502844355796    7.11043655694200    5.18350308070969
In        2.73087856829793    9.44645527006541    6.65510202426601
In        2.76870852636399   10.64875728150359   10.55578268048411
In        3.95912862296915   15.00986931010398   10.72063426639128
In        1.59940372063202   13.40183181693536    7.89493267594018
P         1.86221310494245   11.02649872664589    8.29919226332447
P         4.26448563750590   12.61467910041086   10.55424465349740
P         4.19075782670519    8.70156983050564   11.15445203675994
In        1.41894244793978    8.00644054201418   13.77216940531698
In        3.50878909487246   10.01478766465662   16.73704416786861
In        4.46544291875390   13.36178091875362   17.23776562919326
In        1.62801281739273   12.38598707590578   14.12034327343780
P         2.44733517299272   10.10368637827873   14.50494222977850
P         2.80373668605592   13.93574102777058   15.56409691491519
P         5.65577972936222   11.28404364894315   16.57999118460858
P         4.71932569901097    7.85375222527538   16.70663674076122
In       10.21823106244298    8.16334673207639    6.42057525348401
In        4.92281788424945    0.93526966906284    9.17869928080744
In        8.20144555956506    2.51496497409467    9.75641023767226
In        8.11933955530928    6.16343997893919    9.99266888118050
In        5.32383472872430    4.78164677324780    8.60089029167333
P         6.38903512636044    2.58677674906259    8.10064484387551
P         6.83501529921851    6.63035389479864    7.93188913150905
P         7.32920743349814    4.20070067226930   11.31445093900085
In        5.83557869153282    0.13960198530649   14.48747607255474
In        8.54165778469339    2.62105759336051   14.41612354135732
In        8.05583061887020    6.54855761681051   14.75351786708975
In        5.39292850589008    4.07987380120572   14.25122409373314
P         6.48353404508587    2.10148141031673   13.13441028808845
P         6.24402040718374    6.12828694589730   13.06995883182012
P         8.20386021133976    4.42843030619290   16.02346993178841
In        7.59631800128796    4.72038862003097   19.62389241090464
P         7.76866711257146    6.55042671973085   18.03093774550272
In        5.39726422283440    8.38907564510635    8.98015424990981
In        8.18250417233298    9.99911274979389   10.01578644250463
In        7.96299856004052   13.76197932952047    9.57808624742218
In        5.04655651390363   12.08448388505385    8.27358985561344
P         6.71773311377471   10.27876013025015    8.05234126694097
P         6.42592826026410   14.04335168285240    7.72746999429718
P         7.30897240206943   12.01884232169664   11.14541373305443
P         7.37118945769242    8.08399117221115   11.37823523265019
In        5.23156767068992    8.09998127472394   14.30295276116066
In        8.11620254932827   10.62993475005698   14.49024705430507
In        5.13780657741181   11.91845647034119   14.23294432387628
P         6.20402178947349   10.02319658258496   12.98329230569846
P         6.03558622753391   14.16042635161872   13.92977974844538
P         8.39703600182481   12.52468649323486   15.99779536001921
P         7.91957504322891    8.68618731168608   16.00507883270589
In        7.55587547489871    8.48263143885318   19.52844804981737
P         6.38725192825034   10.57828035980027   19.56517112053322
