38
 energy: -2.496618227663 gnorm: 0.000216702861 xtb: 6.4.1 (afa7bdf)
In        3.90971294229505    7.55612625937422    4.16324392572547
P         1.89009593286418    6.69872364160284    3.12684002677478
In        3.86010881191805    7.09230403009496    8.66902915562071
P         1.64667989426642    7.22435967050377    7.69424138950947
In        0.51190912639450    8.68918435064985    3.00143592672472
In        3.40236413216847   11.11884995189131    4.01700975033622
In        3.25892401416509   14.83982714298986    3.94025056193408
In        0.19774467591459   12.74580091453711    2.84219159122391
P         1.59522001282380   10.79007793461311    2.36918089167944
P         1.40263600033499   14.81264158737255    2.31639838944620
P         2.47824329657574   12.97412843168066    5.38823235529104
P         2.78797514254735    9.24839690085962    5.53256789865566
In        0.54729864127360    9.20828746374996    8.58610127291307
In        3.55777697632978   11.33412550742592    8.40594717364178
In        3.14509132728651   14.86082395617996    8.75074744739492
In        0.22986318622316   12.93047844902655    8.42910315431062
P         1.38536739368233   11.08712382752682    7.20626480290570
P         1.22934188835809   14.81836790221611    7.14170162000701
P         3.02663647462451   12.89132341941075   10.22188697287937
P         4.72748623238444    9.30291704677622    9.11603015773234
In        0.13184455670066   16.83299403677502    2.87085244279884
In        3.33230422349230   18.54080745259119    3.99865622992102
In        4.03421673262759   22.08258058255365    4.10034384757066
In        0.64278388701512   20.94202313996850    2.74118610204342
P         1.57034281203189   18.72636507223503    2.28255918249632
P         2.23103869155558   22.76535167571666    2.59986276765327
P         2.81330489282648   20.45461142113612    5.47468541546523
P         2.44031604174803   16.68958050016013    5.38945653531089
In        0.18897568762880   16.69711848226470    8.40736470722061
In        3.53454421907906   18.36996170913937    8.33072213428682
In        3.37409282022616   22.55487056949679    9.33436170259645
In        0.37169060126371   20.32078828695730    8.67365733044653
P         1.32023306606637   18.56949713278791    7.20410061131590
P         1.04484058573271   22.67797694416033    8.60539552659424
P         4.58318378840758   20.53164630206536    8.80397999156699
P         3.01130749314801   16.85726113500459   10.18459664741690
P         4.95759274808644   23.72198402655711    5.63007593997673
In        0.51031354993705   23.70223314197992    6.47849842060983
