32
 energy: -1.774569936187 gnorm: 0.000742243772 xtb: 6.4.1 (afa7bdf)
P         1.73439120295796    1.73244991648977    6.26986286892561
P         2.23144564888749    4.82591247020781    3.51258216711799
P         4.43687394956992    4.43837608552520    6.87142540372462
P         4.83011650456698    2.22624550902054    3.51770025190741
In        2.71409581365781    2.71575934784659   12.87028252010081
P         1.79012032544544    4.75455169671260   11.87727254662261
P         5.27955105471597    5.28331426538399   13.82229691188575
P         4.75370597530923    1.78578761092891   11.88339271121714
In        3.28737170568711    6.01675332989950    5.36878693887719
P         1.74049127918233    7.59007496956514    6.42029373459001
P         4.71132380369797   10.14940848323024    7.56771311416614
P         4.92497841916335    7.56691249935429    4.32230571443832
In        1.27889183235997    4.58954416491651    9.51503406093867
In        2.20425432982067    8.43780616469588   10.08320249627242
In        3.27247174829361    6.39617042344029   12.98724404975467
P         4.18470142662046    7.19338332293647   10.79778724262413
In        6.01813834224408    3.28848704788083    5.37214974240910
P         7.59108921794266    1.74872731472128    6.43446881696780
P         7.56255941217103    4.92699867774638    4.31885143825088
P        10.10586882265305    4.71025103120816    7.58102841858405
In        4.59308322331899    1.26813172161482    9.52217599490026
In        8.44507568915286    2.17677456375522   10.10415241745297
In        6.39123780348436    3.27282172151551   12.99379873676441
P         7.20569044344179    4.16558421376231   10.80316545399400
In        6.02657539683949    6.03178459680209    2.77967562599715
In        8.18549335456902    5.77374997076906    6.54882920983444
In        5.75086582703897    8.20268193165136    6.55714858442537
P         6.50428906758981    6.51723364520513    8.18026548616057
In        4.80794450650112    4.79434613290034   10.50757615741577
In        9.54060226370201    9.54263006109981    8.57407172963177
In        8.73191522621440    5.94072235777074   11.49619448528919
In        5.95322638313526    8.72506475126686   11.50054496879181
