50
 energy: -2.705401960674 gnorm: 0.000104426194 xtb: 6.4.1 (afa7bdf)
P         3.21426342313638    5.81568627937679    6.96914026354593
In        2.02425386044268    5.34396218475093   11.21704111927678
In        0.18552994141567    6.15648701029556   14.82449345544914
P         1.26804786519290    4.04075416947459   15.13986794203375
P         0.71841690700937    6.97998567306755   12.54584811690717
P         4.20756752785719    6.21117971956444   14.24698024021596
P         4.35371010765432    5.14247783144976   10.68986711580855
In        0.98250782655884    6.57732771752047    7.38538198619198
In        1.40881578828882    9.81808259265743    5.31145512965383
P         0.01506844426849    8.76225305407384    6.99020078899225
P         3.11948273438806   11.51658956666781    5.10503024635993
P         4.64545064241056    9.25422256799111    8.00294530867883
In       -1.43233149501452    7.32872951139331   11.42264334939527
In        1.60322225343868    9.21610058008318   10.18226223938117
In        2.87958722935347    8.04145693500105   13.30804103819753
In        0.04598807193384    9.91121301937760   13.93419156188883
P         1.99333923299368    9.28484964573162   15.27283823876204
P         0.78376700239529   10.91795076412930   11.78708898057079
P         5.13463543193407   10.85368620558876   13.97000827374260
P         3.78269449236047    8.65035540907931   11.08257502929330
In        3.85582491419436    4.83273196145693   18.42482652973574
In        3.75178925403934   10.75400897754680   17.97090868091057
In        1.02199179932879    8.41859949302101   18.78468523839043
P         1.26717629821752   10.78300301454243   18.13172404305213
P         4.68771586435853    8.70341570966354   17.12074111561364
In        3.86169382912788   11.50986954489475    7.45652894587882
In        0.13246835537731   12.94835280643706    7.11924759521660
P         1.89618564213066   12.43058703961806    8.66464341073900
P         3.33381144662008   15.73764122326198    6.71378693716908
P         5.88212650592980   12.84088675032850    7.83965632459071
In       -1.31848107756034   11.74288964069115   10.81981867628732
In        4.38389099284625   14.41561111800012   10.89549598968830
In        2.99455713069912   11.44742632475991   12.89554571457468
In        0.47525645763035   13.73097314017689   13.42630552110334
P         2.19258619447209   12.73844547911401   14.86123965323437
P         2.13086996938408   14.73394896133836   11.85471983338417
P         5.01330151682037   14.82944897265042   14.56105716258811
P         4.20611290687631   11.98815503218592   10.80635580452311
In       -0.92371908762650   11.46011165183831   17.23044662122691
In        3.64506153239981   14.29607495604628   18.07125330428421
In        1.19767644196081   12.00102842195585   20.29721392739581
P         1.34193165581227   14.38766253728482   17.25249192063055
P         3.25819864408281   13.27783523481717   20.23710662299277
In        0.65702019493609   15.83659348887632   10.24874547441300
In        3.78652604032326   18.30599166477421   10.16638169141124
In        2.95750786685048   15.97758991058500   13.88508490991194
In        0.12915996695048   18.30553557237613   13.41038212840623
P         0.82969165740044   16.63222655945474   14.99162523392498
P         3.75458087682946   17.86364074778230   12.51333525585458
In        0.35215642151718   15.68980112728057   19.02624530852465
