24
 energy: -1.576311185546 gnorm: 0.000479494990 xtb: 6.4.1 (afa7bdf)
In        9.02316237561869   -0.09183574888424    1.94234478998046
In       11.21411452955692    2.03708734782391    4.30337981268638
In       11.03807180463549    6.39153502060484    4.65255331935552
In        9.25763453723765    4.21384211285251    1.64835024479278
P        10.26052432901990    2.00126367111305    2.01618265149832
P         9.95820153097272    6.37804748142067    2.48349366862661
P        12.26261064420418    4.26322462869566    4.62234802480951
P        12.12212323082806   -0.24026594489449    4.44087804878301
In       12.74023138824021   -0.27606156414483    2.08728661925765
In       14.61028780706505    2.00520647904438    4.03167213181046
In       14.85435446978479    6.73358632091686    4.12605130789390
In       12.70729463616975    4.37281218621340    2.18275998676059
P        13.50879154111717    2.05013784840517    1.80725123972310
P        13.62417520654005    6.65094056397624    2.03454008978564
P        15.45622873095876    4.34632522993155    4.08773464413680
P        15.60786235836062   -0.24613710803088    3.93932053192822
In       16.40533403468313   -0.22125191391493    1.64426097933423
In       18.01707330936841    2.13420564403103    3.93538123578699
In       18.60120531182485    6.18431923219620    3.33621608560791
In       16.00619704445770    4.26156006092015    1.66973953515919
P        17.20022115233958    2.09596987956606    1.60336938760449
P        17.21935671368547    6.37635986948922    1.36026378869194
P        18.62868530559696    4.31629216725027    4.87321401070203
P        19.20986800770346    0.07955653538900    4.44364786528895
