94
 energy: -6.153162006456 gnorm: 0.000547605717 xtb: 6.4.1 (afa7bdf)
P         6.49726295833587    5.88438128280994    5.40930986689087
In        2.93860334172493   10.25909535190009    3.16503182835315
In        4.86057983301753    7.67813590406740    5.32448482189568
In        1.44064979801473    9.48852220589566    6.56184079704831
P         3.55076571996245    8.49583307308833    7.21302302225119
P         1.27434632300186   11.15383544984484    4.74805771385581
P         4.14856538129491   11.83881621795817    6.95629502618053
P         5.21385568058363    9.50201885241871    3.67837821553391
In        0.08466749186659    7.32252839030284   10.15836254258728
In        3.22556110669159   10.52368729495455   10.18995834777091
In        2.82994714672066    9.19828071788630   13.35044658364200
In       -0.18165709301211   11.00267177305742   13.24949906328228
P         1.40679315708633   10.34335156191889   14.97639018051474
P         1.29257709913275   11.60531676565352   11.33272351903162
P         4.54411794265066   11.67077311003841   14.60156308846824
P         4.68116854983261    9.16688827193732   11.67479638631996
In       -0.95380722553612   11.94915172233022    4.16382296746463
In        2.22522328882313   13.99976461404933    2.22564615475664
In        2.42712722524087   13.13792400106378    5.76082022381748
In       -0.43224052033023   15.89393892714670    4.85659284118501
P         0.76337666063793   14.74625295426337    6.62411035729159
P         1.44810560889842   16.09779643637456    3.26843733722871
P         4.14089502593613   15.76158133878794    7.05197765325079
P         4.01601707202221   13.56667314710008    3.86944528848846
In       -0.33326415775586   11.89806065373001    9.50893322560750
In        2.90754148659012   13.91318624118913    9.64662820055245
In        2.86241018605159   12.60459519935479   13.03239083836553
In       -0.41812501912365   14.63205182563018   12.61606733591833
P         1.24755494942999   14.02007710377591   14.27810058984445
P         1.13323231297864   15.22169979810530   10.78306449797755
P         4.52710621445883   15.26818055449862   14.19761595245351
P         4.59422736673898   13.22505011306976   11.32542941261615
In        1.34762570829681   17.68114538231787    1.41453165236230
In        4.14161061831431   20.35047321125169    2.27299738255548
In        3.05512827664156   16.76946633274850    5.07535506850552
In        0.85597742327058   19.80530669217175    4.70909586809603
P         1.64725726299191   18.28935413459810    6.41568151726414
P         2.23875094677046   21.31643253568818    3.42255228494494
P         3.39745074500021   21.47303844742255    6.86481515119141
P         4.43381846406970   18.35075909821942    3.69562620025278
In        0.46517061810107   17.41584242662877    9.93337650445662
In        3.85230917609074   19.11383867711956    9.58223804359937
In        3.04438419268449   15.88000874529811   12.31274588460861
In        2.15992682342176   19.81246281815830   13.02908835555873
P         1.74550827635435   17.50590951309223   13.62363695837584
P         3.55639927493984   20.81041513093226   11.30791654758227
P         4.49992433946510   16.95018745186252   10.57949570058134
In        9.12510592615692   10.56361959090156    3.05059017508037
In        8.72805925959803    8.60039779105099    6.39323870567426
In        5.98234677544289   10.95466769293247    5.55221545684200
P         6.90984527094148    9.75490525669822    7.52109769961797
P         7.63865637681847   12.21344863717169    4.13586415416687
P        10.77544638709118   11.74625407144893    6.54863530118117
P         8.12658847714976    8.57823957392405    4.03860519683373
In        4.55512086613873    6.80955463995173   11.01206567083094
In        9.59456862038114   10.06294457298399   10.27968637073425
In        8.13821130283884    7.42020740961869   12.30141299257929
In        6.19448607304355   10.51141521530044   13.16017816198204
P         7.20965051710262    8.53621586285089   14.24204111770931
P         8.06927864775813   11.38114550305058   11.72328929158374
P        10.52699321207909   10.23959380060710   14.30203357595780
P         7.74632392081929    8.46718615387991   10.12960601509648
In        5.88782974566234   12.74625918425113    2.46312719966592
In        8.90908735150334   14.69637073532693    2.44482173912758
In        9.21446177356474   13.41553399915887    5.66710643738539
In        5.61445867830336   14.37771345909370    5.62674313826729
P         7.33474077512235   13.66139074258388    7.24864544036659
P         7.02369492400051   15.45361657432034    3.86919117257566
P         9.75951032795713   16.63580246759411    7.47097109008884
P        10.48902517027211   15.03207643058173    4.28060350851010
In        6.35441077001312   12.03003030296997   10.06158688571541
In       10.00654389628218   13.85118600202384   10.06017070893266
In        9.54300555601944   12.33517230932927   13.50715034042971
In        6.28068840560677   13.96823905122629   13.02890868447736
P         7.67008024193159   13.14519358832293   14.89799667580517
P         8.02135827746457   14.62059731861314   11.32965643243863
P        10.47070460851348   15.57038376052047   15.27144323266133
P        11.20608371816639   13.58375581371705   12.15522656491343
In        5.51801808065025   16.63258711711258    2.30647184519347
In        7.82421320504216   19.90741688121119    3.36304350228897
In        8.03850282856558   16.82207897281044    5.73014588534329
In        4.76189182291827   19.76786734833137    5.74009735807791
P         6.33852497615523   18.22442830109797    6.83417448916913
P         6.43225728394844   21.30284001322472    4.75885378060606
P         9.87722720797140   20.47514283370381    7.04682919304849
P         9.10992979040052   17.89471830956293    3.77482289459006
In        6.67577018200639   16.07465904777477    9.86139706096458
In        8.91195973226574   19.10986945058876   11.07837396110016
In        9.04383985426829   15.84275888194536   13.29123425917430
In        5.35606683836023   18.30295524962303   12.52102185581608
P         7.11755701685604   17.26169194569398   13.87535355494371
P         6.59744074670506   19.94159575526428   11.11328356335290
P        10.17731819616198   17.08855103177289   11.48795416986729
In        6.64973182579502   21.63293239693072    9.35339648903248
