296
 energy: -22.203643683688 gnorm: 0.000121435011 xtb: 6.4.1 (afa7bdf)
P        16.29016612309502   13.63196721029794    3.06240737924929
In       15.20755438779412   10.66373156666598    9.71641433297192
P        15.81182570880049   13.02668969705603    9.54967480724688
P        16.91967998753818   12.79448156796874   12.32834898538623
In       17.80064654531759   19.70363751677357    2.13582158674256
In       14.95799594997461   15.70082367094849    2.71059991686061
In       14.58535744217255   19.21774924735723    0.36632621519114
P        13.92340457227831   16.90456213763945    0.81943020376608
P        16.20355400362688   21.04085468227884    0.77653900269831
P        19.10364143352975   18.14201886096551    3.62947893215160
P        16.18391474559869   17.89944449619772    2.79238970891373
In       16.89020702529798   17.78094805784965    6.55645471496295
In       15.20158679262024   14.02407683267016    7.33174680983071
In       13.51686100886311   17.43782184857896    5.64012014009925
P        13.49105364465105   15.80140957153882    7.43477785889155
P        15.23486621155177   19.19712112232974    5.31168872601822
P        18.60248127174120   18.30637519844750    8.30803948014370
P        17.00260896754529   15.66276824993090    7.88608429898959
In       18.41624809468910   18.38936710666152   11.44082108293781
In       16.08798819007929   15.13810603780712   12.35480778868645
In       13.85971274176613   17.84799880360964   10.74998370736339
P        14.81549389223830   15.64616767805800   10.28157429831441
P        16.13929178055600   18.74425252152850   10.46766716206845
P        20.58171167795681   19.70435991394016   11.18871578359361
P        18.00465497509409   16.54903497050924   13.05693516054841
In       15.47070922411190   21.97958672043881    2.93703590157486
In       20.57587856907488   22.20321005452940    0.89314064991692
In       19.46166711791340   20.30770752779016    4.83357688077540
In       18.62487249071632   23.19779589198387    3.67522720255730
P        17.19365043257499   21.37740379790873    4.61343939680406
P        18.35276860066684   23.25992278958132    1.21563536121375
P        22.42662064610562   23.86225589060156    0.88060416995774
P        20.98560795316105   20.93732643257772    2.97686038286575
In       14.33231535724110   20.45007159350516    7.25565195512467
In       19.68313007319229   23.28515704942849    7.30743358737499
In       17.87313355211192   20.68376131231853    8.15090492934796
In       15.38899362413915   23.67539358633501    8.30127323026610
P        15.68214610590490   21.36400077343355    9.12809760901644
P        17.69130068036491   24.51410882751873    8.16849845283239
P        21.54503471429827   24.23907251413582    8.67011856759006
P        19.91913671407085   21.64081426225124    9.22890575753011
In       15.87386427842445   20.33883445354067   12.36693520907843
In       21.21797162302623   24.40394538657705   12.39367365602224
In       19.61234755378579   21.21650574177638   12.94834262215723
In       17.51602684551922   24.09616062937759   12.12100839959193
P        17.69768842857115   21.72071595391913   11.41040767121059
P        19.45706048565248   24.46355795578584   10.59608403856296
P        23.04733445692034   25.39253866119306   10.95556502515209
P        21.76847802007178   22.29197873105951   13.61921641893826
In       17.54652742966502   25.53955258522710    0.75268221932838
In       20.90051162487376   25.50443325722059    2.00463058722584
P        18.65447911498583   26.21472289135210    2.82534814819454
P        22.17338616258042   26.52223996743349    3.88737171112979
In       17.74856949850380   26.50479945804317    6.73244761277691
In       23.09032209761425   29.66685002627590    7.13231063596556
In       21.20716439490563   26.49573632745185    7.65198480396724
P        19.89107870190429   26.48675468807907    5.54371504153894
P        23.11994346115867   27.75608376333171    8.66122207980892
In       19.24979849997085   26.91867428890660   10.98889985925606
In       22.74444501785711   27.67055976905832   11.92497575309775
P        20.86640614292684   28.72045852330359   10.71693290708027
P        23.12265018492925   26.65990087218927   14.12841830661004
P        17.92061590094395    7.97870931079737    1.87800159517131
P        19.29535787180406    7.11023258583566    7.41862779126852
P        21.07521423155060    6.83657181380272   13.85576980974444
In       19.53549916831280   13.71536476244291    3.44988065559545
In       17.35615769871552   10.34114854169345    1.49285639759501
In       17.57772219153209   13.69796889983089    0.93807977856860
P        19.12294502126569   11.79556745330778    0.53573687431344
P        18.38967739656963   15.64024408275357    2.33226599507138
P        21.78667690255127   13.87943866360980    2.43739668436637
P        18.37814957778194   11.52567818212270    3.42194556010268
In       15.34323723719158   10.76044784977223    5.61823805493391
In       20.62942102305720   12.17899136418781    6.59094717503454
In       18.39281734967902    9.40470319993802    7.46664073560692
In       18.14227042771762   12.85712586275860    8.66349830155343
P        17.39472944119142   11.55041957663061    6.68088390583378
P        20.33481600793910   14.03464244472853    8.26049874012773
P        22.63545454483252   12.63901078382540    5.10927873152732
P        20.25961446008793   10.64823113215469    8.55001433543098
In       20.18799454358755   11.56367256708033   11.79334391957632
In       19.17760301560121    8.29949909038778   13.26732759735260
In       18.17378013312080   12.54291612482964   14.42764655336387
P        19.14739978362877   10.30103264663492   14.68656532622405
P        20.39117263570224   13.28063131234358   13.58208361707476
P        21.94683101899392   12.69598393115713   10.41526592247546
P        19.61481766146382    9.25758666968729   11.02627143173623
In       17.19456457299764   17.02409194871820    0.62768189558533
In       23.69582285066739   17.41762505102350    0.41224492551378
In       21.12071487879745   14.83494076105186    0.24363064856724
In       20.53157083977574   17.89091203823500    1.60183105663436
P        19.51039082898862   16.66636916930499   -0.30432645150793
P        22.64500727854524   17.05624897691872    2.64209212378809
P        25.63412283034062   18.93961120137105    0.09282087088964
P        23.51561696500465   15.06721851805103   -0.37676120674846
In       19.06481869363714   15.29816154919703    6.51639972234137
In       24.01082717585140   17.47698096590304    7.56569563654496
In       22.57647587992983   14.94134857456421    6.04550906735975
In       20.73188329530001   17.98714619554158    7.05973687199469
P        20.82859945660349   16.41729035717460    5.09139553506736
P        22.26228155263581   18.54391899486885    8.98729209004113
P        25.58984684280505   18.36632787016714    5.86954907250250
P        23.82538886175283   15.06807202198656    8.18628820914340
In       19.45172090214292   14.87609189343083   11.92358210771306
In       24.49718076199635   17.64106377698814   11.23604554952926
In       22.76573847023017   14.79841575617117   11.49999559289914
In       21.29117219099554   17.79229258165327   12.64949111509433
P        20.98646200774203   16.33767512498249   10.62070348470994
P        23.61449495098044   17.97926462939840   13.51793526828611
P        26.50603685068128   19.07208789065750   11.17127543113125
P        25.10712289940979   15.26014035557231   10.73695455306972
In       22.92165743425958   19.42413793296516    3.36695142709186
In       26.91764133986066   23.74346300372693    3.52272134753870
In       25.24860834070422   21.19851792729266    1.02001497386717
In       23.27747235958741   23.41957664722415    3.15490081220359
P        24.55191742264779   21.29491682652583    3.38672919275423
P        24.88511579319519   24.96453286574140    4.26942880443954
P        28.64584301465430   25.52783707577808    3.50864368838487
P        27.15656121932627   22.76919215052892    1.27499755098639
In       22.00127328676374   20.88565017654649    8.10935201335568
In       26.93136396953696   23.65975845718173    7.54018635099177
In       25.29436133489278   20.55524558003849    7.04626625744063
In       23.39066437701150   23.74338822722741    7.04765813696955
P        23.20910106482324   21.44702300758098    6.02688898797671
P        24.96548959588829   24.45112504412234    8.87663094657985
P        28.32063179782250   25.22399959016346    8.92859049512664
P        27.22312005079944   21.72698632835017    5.96899918900078
In       23.42135644295780   20.45324827619006   13.23037492679105
In       27.83853809641088   23.39879057278369   13.55536133952399
In       26.06003903157301   21.37314255163041   10.39235153143466
In       24.10245905684030   23.29169878771339   11.81461891095596
P        23.59763939673308   21.04659055071929   10.82127623209070
P        25.37453903555188   23.35213859358453   13.92142936917568
P        29.99611608005265   24.61852920372430   13.27334306659330
P        27.92446363549566   22.87338723781231   11.13571608215071
In       24.21471628781461   26.60602045288728    2.51130593329510
In       27.55352719203205   26.16709107040785    1.34415552820874
P        25.32043526649194   25.21718693703660    0.82310933616819
P        29.49767580834574   26.27797118331886   -0.16054096470024
In       25.16346885004621   26.66056219935141    7.72471380695980
In       28.46832514111050   27.28840286188122    7.50316188104698
In       26.66360746017810   28.65377719315541    4.65184077517273
P        26.78898294288824   26.48633385798593    5.82419587416859
P        30.91172514915149   27.60388125803453    7.70837701233662
In       25.30514881251180   25.79136863881511   13.36429073129062
In       28.56149515232663   26.53418438209361   12.59070572378371
P        26.63958720937046   25.64400516760692   11.25838832879286
P        29.77251699332928   27.24606496250641   10.55820094860771
In       22.87982431031771    8.08883811375133    1.21043242430267
In       19.44215206157144    7.92671470176658   -0.01999657046963
P        21.01666220672294    9.67121045944864    0.76184404067424
P        24.10682865473991    6.72156153451626    2.88374426158053
In       22.67449355403355    5.64656160183668    6.80574572094933
In       20.19682027903742    7.08966133922651    5.14646309271898
P        22.57811204512010    7.76840407013469    5.48381042302419
P        24.61612591946486    6.22395471014943    8.23152825182453
P        20.72973676083602    4.28614033232589    7.34632460332683
In       24.13310117292618    5.04992777138509   11.88212555674384
In       20.59255335739513    5.44635551703395   11.89681413355055
P        22.45323042783695    5.97945930983893   10.34125959885903
P        25.97016253257030    6.58221619180283   12.42837548305869
In       20.34028824135595    9.98826969753117    3.14372704395600
In       26.74151429167205   11.42652108483362    2.13437398214580
In       25.01556533051440    8.87581105166786    3.75614659338774
In       23.08224915922397   11.80546044338233    1.95308390407441
P        22.79152594067486   10.03604028434093    3.71050106977673
P        24.98423892597324   12.76367273388537    3.26643349997399
P        28.38569917480760   13.28139621874661    2.20363694384488
P        27.43181637962551    9.38572867820382    3.41202561409155
In       21.90222570623559    9.01507548636406    7.55527216314741
In       26.90515689581366   11.00987190396100    6.56684227791677
In       25.14998418674250    8.64898875977299    8.22435813544043
In       23.76058559975935   11.90451400901702    7.21801761791135
P        23.46359771047419   10.29494012909463    9.07202319514075
P        25.92989247962379   12.46237493428801    8.33318408452358
P        29.06475020215073   12.05088284241105    5.84315685659332
P        27.53647753017387    9.43743855883777    8.43138681016952
In       21.91501891317026    8.31209948804453   11.08456674391148
In       26.68763805860553   12.52455437038279   11.32909892317864
In       24.89230970088671    8.79101335707223   12.75729748950856
In       23.35521911670523   11.75314504127127   12.32104280612424
P        22.53090537031120    9.53539360961109   13.15580210126511
P        25.35648254226055   12.82657640709349   13.39490943283803
P        28.53758055972400   14.21850539907054   11.19087877295696
P        25.80833207528905   10.19481591105789   10.88801224124287
In       25.08332159356139   14.50536021448971    1.47114232054164
In       29.27352889640413   18.47492801492773    4.36001083390091
In       27.58608085312188   15.12891426995554    3.66756047345427
In       26.54765374980498   17.97992110468556    2.17790093068309
P        25.31057060107448   16.14104597667474    3.33457220504749
P        27.15398093266212   19.71806552543127    3.86985197712807
P        31.65002954257870   18.92818808393156    4.96288544481959
P        29.45368660986816   16.55066018258445    2.80861453089356
In       25.83642289858678   14.43222624545196    6.80512311563165
In       30.60230257664122   18.09486664144344    7.87125948025253
In       29.31963705018674   14.44528395321574    6.55819684711703
In       27.33129136469250   17.35735216629158    7.36629807298702
P        27.71190395774584   15.08302380887879    8.33179533488313
P        28.54584872171042   18.58246143781127    9.17453230013501
P        31.90189114035062   19.76621386473022    9.16859991186661
P        31.23295769913970   16.03985842204843    6.63609711242310
In       26.04297198747009   15.21143534482011   13.05230236338426
In       30.66476449310467   18.76786337536777   13.91598262648626
In       29.43774939175783   16.51901618385781   11.65226804854723
In       26.80811850776481   18.97981539351053   13.61699418660092
P        27.92117155150813   16.75537300160405   13.59820551106420
P        28.79040262179716   20.40412637751880   14.05020132346943
P        32.51153597947516   19.75518980974171   15.25429020768296
P        31.69554010631637   17.65605718698952   11.91177365864563
In       28.56934517674840   20.91822442346319    2.16201446935096
In       33.65313620200206   23.34867638024026    1.28863517303436
In       32.00741131279976   21.09185392089297    3.74638877071499
In       30.16757959932700   24.03878496898945    2.19634623388420
P        29.80923499768716   22.22829695226620    3.88678110979641
P        32.39465266079292   25.17670924698286    2.34619857417655
P        32.63159244306452   21.10927938943057    1.34996954597387
In       28.59352236400329   20.66283892880914    7.76768611768882
In       33.40519842646403   24.53177714372543    6.35794505670241
In       31.89628419659512   21.48381797681533    7.35055615220319
In       30.08478601075848   24.46608155859847    7.30148256755405
P        30.04910192525871   22.41852866152824    8.74068763874471
P        31.24118127385817   25.00468047497172    5.15375481346284
P        34.43732709709728   26.35768773856254    7.60193980131524
P        33.88466616254472   22.79364085377480    8.08884448614523
In       29.27251288881769   20.82901056030965   11.65657084218393
In       34.67559130405874   24.72193777170670   11.55154345816856
In       31.99137803945389   21.94006131010265   14.19148961606883
In       31.38187454953617   23.55581683220633   11.50873139879622
P        31.76145323055995   21.08000808846834   11.85760024047892
P        32.80920911505833   24.87193261643232    9.91993199620176
P        33.79964159173108   23.54589180965322   13.55409396541553
In       31.50099290624357   27.02569090001519    0.99211967253222
In       31.68487610972930   27.44132333761840    5.40529709961732
In       32.09237058447135   26.85806080437291   11.23595744022237
In       30.08431903719632    5.98578034780266    2.39246515135480
In       25.71311859681470    5.86945635580538    1.22686613326091
P        28.11531865679396    6.27573559502155    0.95171967663136
P        30.62003004868306    8.05545497887098    3.59911658300094
In       29.45645341559064    5.28831052345196    6.45721966221490
In       26.25958650352748    6.25796356975529    6.33478981633640
P        25.51665719803776    4.50870686622641    4.82253847275917
P        28.33049118368932    7.09013685885598    5.16068905624242
P        31.10378031214081    6.26727802819895    7.96670971433521
In       30.71291604553958    7.12745887859518   12.28278522712966
In       27.51555578465340    6.29434149494194   10.54973747531247
P        29.16356608673292    8.12538432423662   10.64250250990006
P        29.62223836761874    7.76641846275627   14.35402452975332
In       28.42582725089600    8.72457417537847    1.22209212615555
In       33.79771841877690   12.75903023524867    3.18474478515994
In       32.33145092240969    8.93599261238965    2.06425675977230
In       30.22283530043570   11.66421185988314    2.63263192074089
P        30.50306894903801   10.01888580791015    0.80121145206387
P        31.63933656657679   12.64969095043880    4.44603495969129
P        33.77306382588194   14.36975160614470    1.32937365328478
P        34.18464353625539   10.37585554308985    2.74687641782838
In       29.26816895993365    8.75813165949638    6.76929048730537
In       33.04571777752731   11.78075677009684    7.57372792946402
In       32.50366716430563    8.15413156808832    7.21567247039175
In       29.69862400250048   11.67881316784933    8.23916668579893
P        30.87999209131509    9.49443867577323    8.55350828923911
P        31.63078185112307   12.73080571932628    9.37530476461522
P        33.75668872960965   13.92661301539620    6.56883567492062
P        32.14011065403289   10.20616153597244    5.87297874460617
In       27.91151469627260    9.66739020491625   12.15811954353803
In       32.45507749252986   12.57961198480227   13.20216593286605
In       30.20445722873825   10.15671603030358   14.37092130432313
In       28.94917558829631   13.55254177892739   13.54928045640308
P        28.00687250314925   11.30113412708092   14.02976146047739
P        31.09320556254431   14.00301399964121   14.69663217753343
P        33.74676063990329   13.80135528769122   11.49385838511205
P        30.94009177178303   10.94729945781225   12.15388106018698
In       31.24627185980012   14.91140079100254    3.40558864195794
In       37.11850612833685   19.31040296829319    2.87881195934870
In       35.10252598624437   15.88513065992596    2.74605029341089
In       32.54134897958724   17.91847449351777    2.85037066041563
P        33.24330307345863   16.05815187505624    4.40485319725459
P        34.63937433004401   19.27063567625789    2.94799215717221
P        37.01693652366417   17.12431254011197    1.83319470644454
In       31.65276465670178   15.16646065135318    8.93050823823076
In       36.77266715995141   18.30779556746847    6.46347717645441
In       35.06964138015423   15.15380508606496    8.24111763472503
In       33.85543071490197   18.45090943820730    8.32728015713055
P        33.60524720595621   16.43584832428598    9.78824019981653
P        34.40929786560162   18.86689623098614    5.90725669400857
P        37.17123148836450   16.32574264791301    7.80824478820222
In       32.24651025140003   15.91537098329611   13.61789063952393
In       36.55555203979313   18.31464422501260   11.19274856200429
In       35.48745611115476   14.66320637359776   13.00207375304363
In       34.26493282032827   18.59977256619795   13.94658330323293
P        34.48880616542306   16.22313646148853   14.62989197545285
P        34.39816235068415   19.43812190879578   11.59728881048762
P        37.11894953325174   16.04588013007940   11.81430912584287
In       34.42245207774670   19.63278510740916    0.50139878263597
In       35.08452014437934   21.20888731039166    6.57585618591138
P        35.74044874358762   22.53080891166583    4.63856518334002
In       35.01636355780791   21.60259594199236   12.62107130944397
