74
 energy: -5.000699747476 gnorm: 0.000775578058 xtb: 6.4.1 (afa7bdf)
P         4.73032064248540    4.76494249475559    6.90642283415464
In        3.22516703701592    3.21400363824623   10.94350324615328
P         2.37737061700719    5.41871908143288   11.49150605370819
P         6.21630659623361    6.21087391534517   13.42986723981803
P         5.43163798819007    2.37113211345118   11.49201865899909
In        3.70117472121287    9.15347329923999    2.80399514104448
In        3.32088644891732    6.64900494289349    6.23569398654455
P         2.04350510448289    8.71180014300620    6.31359394231173
P         5.13280091223097    9.98062342976338    7.87488589543294
P         4.64789767338091    7.48453001060527    4.30202717112927
In        2.38155347815384    8.22151503985052    9.80459257316067
In        4.00890115605221    6.89139092816210   12.59963463486811
P         1.27713336133811    8.43460793530881   11.97764241894293
P         5.09392640297092    9.60830133101054   13.95254067992256
P         4.76717643486369    8.03143280034370   10.47342591758649
In        4.98104536811983   11.81327014832785    6.24573647346635
P         6.07574547544711   13.38258840065516    4.68622830335535
In        3.02088755245174   10.03021930730267   12.69162457914564
P         3.69123283038879   11.19017776566357   10.63661679824100
In        9.14195839789523    3.70920214157140    2.81220869501768
In        6.61764569018850    3.35548044838056    6.24401631219130
P         8.66585300510729    2.05347591742050    6.31481149201509
P         7.47390777414415    4.66402700394842    4.30632569826370
P         9.98882573803418    5.13391097544733    7.87573242673579
In        8.23574520175682    2.37939422260624    9.80750682286215
In        6.90140874344625    4.00477316832622   12.60009975164220
P         8.04053068129969    4.76498670612610   10.47480264548835
P         9.61731898810543    5.09422100624163   13.95282934935745
P         8.44870703929057    1.27480435147507   11.98025996116717
In        5.37694427422795    5.38742584061530    3.24901418527804
In        8.14182508421874    8.13881739733946    2.86330476516982
In        8.67083086060885    6.08103393327730    5.99036889998607
In        6.07770179603944    8.66214894991470    5.98870210200400
P         7.11233551872574    7.10930946550863    7.60107731981259
P         7.10001218687782    9.98857252437236    4.12439413941765
P         9.65768711530262    9.65319789540731    6.75674160512068
P         9.99488819517023    7.10119662514140    4.12326118746666
In        5.74495801849673    5.73658507912022   10.14549452762907
In        9.05261389333912    9.05303389378816    9.78450492667855
In        9.31642466283832    6.41520599663327   11.87771950755244
In        6.41384103611224    9.31255458055010   11.87629518778292
P         8.51095586369418    8.51122546687388   12.91302750578512
P         7.34731261220443   10.87954067435180   10.11954050000498
P        10.72263891002878   10.72848751631701   13.25139626194051
P        10.88246608925300    7.35069482339981   10.12154853086258
In        6.52220497132995   11.94932862348612    2.73764079287190
In        8.23201728616020   11.41314642018053    5.85309231508534
In        7.72099607938688   14.64814027995175    6.02815973306315
P         7.81825499145094   12.92984539204023    7.77431396375127
P         9.65384080429967   12.64913037053699    4.22454525861559
In        5.63714644500105   12.64522147661505   10.52153512261099
In        9.57835734182165   15.18157146012171   10.32121209555509
In        8.98907171782553   11.78293747712327   11.83054062356202
P         7.51742065126557   12.20545658580957   13.74478524005198
P        10.36200475535190   12.89282145756515   10.04566140899833
In       11.82081097131359    4.98107081679919    6.24596404184892
P        13.38886751454952    6.07513827558219    4.68492471667461
In       10.04226967015152    3.02109182006365   12.69222703783754
P        11.19992379707627    3.69767554603541   10.63822092968661
In       11.95479372052831    6.52067593897647    2.73712940923542
In       14.65515302181042    7.71853660364286    6.02861299233620
In       11.42119242603983    8.23305600421073    5.85080345997124
P        12.93608244001738    7.81859736433305    7.77371768834903
P        12.65923732423778    9.65443482905529    4.22313552081667
In       12.65242122695071    5.64590259031369   10.52667228660642
In       15.18266764571152    9.57253210804607   10.33006560131753
In       11.78079818453648    8.99506530953729   11.83293020646163
P        12.20459795614760    7.52598942105508   13.74912452708640
P        12.89709588075003   10.36246357014922   10.04787793154535
In       10.81629522398210   10.81073066249638    3.09172604866060
In       13.51124639865975   11.05896337193845    6.04981479136187
In       11.06066445312378   13.50379134371777    6.04785221722066
P        11.98563397123245   11.98159389042427    7.73578662861429
In       12.51620345235954   12.51645516094058   11.21334655509594
