378
 energy: -28.278317102413 gnorm: 0.000099892310 xtb: 6.4.1 (afa7bdf)
P        15.09310911218060   13.18657367730087    3.55549057712912
In       12.78795378875511   11.70827467166163    6.78256756744948
P        14.16747685146781   12.55882853461847    8.64343221054844
P        14.76799055895700   10.95212409965818    5.52011455832239
In       12.47628915028093   11.80517204669591   12.41521961775941
P        11.80923413895991   14.04460719461279   13.19511784994348
P        14.62364702073949   12.13695049941155   13.62340090881841
P        13.65049864592947   10.35338786547220   10.78312992640231
In       12.63225030764903   11.38978854559960   16.81188888378984
P        14.10083803775056   12.79252845205792   18.19064404345816
P        14.27925535723977   10.07563489252338   15.55686627347531
P        14.59542327025404   11.00555475321070   21.43249233173972
In       17.69079378346663   15.30513694385171    3.88176997672856
In       15.07556525546413   14.86724427169002    1.76918459039216
P        15.86074344751710   16.76738203149829    4.59081387968017
P        19.23887989146182   17.05832890120476    4.74176089293126
P        17.35918634587474   15.71825687001962    1.45842765481449
In       15.92977856433482   17.44303707496200    8.31833011849012
In       14.85869232277605   14.31662879019577    6.99716482174480
In       12.00569961812063   16.45572740891000    6.77307456796921
P        13.17609588199374   14.91161030961189    5.29616182995227
P        13.54809925853464   17.98007801426086    7.92929375966450
P        18.14225832029414   18.28610318587830    9.05403825864550
P        16.34655152304434   15.05586319600492    8.85800953120547
In       11.31126449262358   14.70724999273985   10.90505108020658
In       16.72377588086109   17.54630470364363   12.20502426123770
In       14.98381757873792   14.01276372677754   12.01155148052908
In       13.37683585085686   17.21110462430788   11.47994562724149
P        13.65913628277369   15.09246274994383   10.19161436864455
P        14.66746450125170   18.69597851428377   12.98885724241650
P        18.69390280514574   18.66147018479927   13.29213672098454
P        16.74780019075250   15.28356452127731   13.22524645807522
In       17.08529628791432   17.39484406540010   16.57755556661615
In       14.81599887156741   14.68635180444278   16.69671168717270
In       13.16463524323095   17.72509840532924   16.45044470988197
P        14.65273842434771   16.45869096601512   14.94271013788481
P        15.09084068261002   18.00199453042489   17.98537756717048
P        19.43927400097920   17.15958841116624   15.71899058082016
P        16.96671537707082   15.26729575023520   17.86183329146470
In       16.20706005883520   16.22133079751587   21.63986967898738
In       14.01075488990099   13.31909329455210   21.90481070552630
P        17.27280918429220   17.70868498890736   19.93150582935159
P        15.44490511117810   14.36221436792584   20.17534648104855
In       18.20124180221911   18.55505090571388    3.04158144934253
P        18.78835590300204   20.74220929353709    3.99907374156276
In       14.02315798615370   20.00190627518842    6.62610140871997
In       19.32746203013490   23.79759634761225    7.54596568850691
In       18.01659982637375   19.90946275558658    7.16799058410417
P        16.18788110314884   20.35070606206483    5.57041485436504
P        21.68061171966652   24.33448344306099    7.22975712637510
P        19.27441630018371   21.54268398183848    8.56912352780341
In       14.75093962684268   20.57784592405148   11.38845807272379
In       19.41875329337861   23.77307042649959   12.28205140241104
In       18.44948209188559   20.53822948404068   11.65719053469118
In       16.12253434181340   23.60148483871970   10.32867753846346
P        16.71286503039956   21.22203211213014   10.01245264605609
P        16.98443122766351   23.69209694010116   12.59406340425397
P        21.13090977341212   22.70096506107593   10.84716092977129
P        19.62795238639521   21.65179847285383   13.55930196057320
In       15.47033358129462   20.28737336621077   17.08719448321778
In       19.55022576827794   23.12288991426706   17.38943619700736
In       19.35705595405789   19.62724509561854   16.24794610874791
P        17.23616835659628   20.64349154597404   15.44431906843225
P        21.44747455808439   22.54639544099209   15.95155187511769
P        18.90837322445533   20.93135395162660   18.31977746154137
In       17.15475065645975   19.80350463559544   21.25582601142806
P        18.11060112179301   19.47136224070444   23.45396194761438
P        17.94567608626048    6.30734756457415    3.33099877833722
In       15.69125219653553    5.60352506681868    6.84864942182367
P        16.24948546741426    7.57161843884195    5.47445649705541
P        17.33473922633689    6.16667219963525    8.61253775097896
In       15.40930780145010    5.01743264399188   11.90480174044324
P        15.49197179759311    7.13259085352290   10.61086107109303
P        17.28746762687084    5.32578188478750   13.50869099646320
P        16.21478246592758    3.46369737087918   10.17033260900540
In       16.95272833335535    5.77575988836270   17.80943976230722
P        15.74355398147462    6.65977628676874   15.85415367263880
P        19.18609567099089    6.86862982768755   18.05137052408934
P        19.08703469512663    7.98752579650597   20.79872730917062
In       19.86610737514329   11.71536619320510    0.09098956348440
In       18.65859093973770    8.60290220159449    2.70584677246242
In       17.05927986996200   11.99629136557722    2.60363336710864
P        16.89939527043437    9.88596570898068    3.90952517290707
P        19.39911210850368   12.76359920993174    2.29215090704933
P        22.03532536324909   12.75465657821061   -0.54775954463838
P        19.10700086719759    9.36643364065440    0.39441544338986
In       14.83964795114232    8.95064304310756    7.01404689613428
In       19.49384981484659   11.48697391079858    5.80406914788683
In       17.99915503937854    8.50329564657649    8.01847690486353
In       16.50331954896416   11.75457217656633    8.23520574906905
P        16.00571912666400    9.49781012136350    9.16451694149854
P        18.88199859806908   12.45036362975714    7.98956897960305
P        21.52522637431205   12.39513329958881    4.67089140496983
P        19.38978617447275    9.02024139727244    6.02229789898468
In       14.14187059116286    8.41231736412124   12.27982122109428
In       19.42690614190550   10.59228424842298   10.81104175373100
In       17.85906271229573    7.57959959596208   12.57346525062587
In       16.36960248901197   10.85839537663567   12.35709642801949
P        16.09532577548826    8.83551670227421   13.81685192297286
P        18.51480814452255   12.12769869241785   12.52835188040364
P        21.32088491520695   11.68343703286684    9.61816968958493
P        19.72794991955544    9.20433068212639   12.86782037213886
In       14.51324842296840    8.27724298198386   17.27774178542563
In       19.66201969579075   11.17128038645379   15.51150229569349
In       18.00002768513002    8.89499325296893   17.19283631308770
In       16.25563011366563   11.70513900757566   17.52960435592266
P        16.12106838865051    9.51488664530105   18.71167813776347
P        17.28446587255529   11.92975556702704   15.25767818327664
P        21.70086093866894   11.78165032136167   14.20293714092663
P        19.79262783302501   10.51040324758222   17.89519482360509
In       15.78822632686943    7.21305151819366   22.01051861715888
In       20.55292225753796   11.55868883258596   21.31914676121216
In       19.30724594023172    8.74380881628890   23.14310516143799
In       16.82172709656371   10.89564864712566   22.47772884428860
P        16.86748598690556    8.68501272567176   23.60186829614959
P        18.31294822835039   10.83207612767364   20.46771486775741
P        22.12594977762466   12.42357757502028   19.55134729113518
P        21.47144869369078    9.95787450742837   22.97570944714563
In       19.66151591687354   14.90554416570970    1.03961188871765
In       23.67436075291094   18.35741870583979    1.36462053057009
In       22.97284986952839   14.97578842515158    0.09725552859545
In       21.25071938221523   17.37587709502496    3.32609230306503
P        21.79532937783942   15.20668627050134    2.27279562398087
P        21.24380336619144   18.90453247574480    1.38451341291133
P        24.23020484032923   18.67798701147805    3.76862086724847
P        24.97599405999990   16.38934796997185    0.59536636009040
In       18.45860377466980   14.85839411390725    7.53766597320921
In       23.30848209449598   17.55668240907935    6.74059455569777
In       21.54449089261909   14.50112270150917    6.06117477748187
In       20.31807580666704   17.58551234198612    8.06891171769726
P        20.81211815925103   15.15589523603351    8.35917730993524
P        21.28973996358203   18.94591756805327    6.22034005289630
P        24.48660585752678   17.95606209504390    8.89011789452303
P        23.60657435906699   15.63208814993908    5.17691508835693
In       18.49724861776675   14.44422360595838   11.65546302812098
In       23.22811173472910   17.32108926104060   11.59430193584912
In       21.75117912270993   13.63456292121783   11.15352721863499
In       20.14430276336082   17.34308333504827   11.74802643632077
P        20.61751472473238   15.12946433657544   12.80651614131485
P        21.65609191654851   19.10310139861103   10.76333048187101
P        24.33497050336554   18.26375999862180   13.60593091483273
P        23.33491687062897   15.29399629255118   10.11826279615872
In       18.23938212172705   14.09663382768122   16.07838611006850
In       22.57063230483222   17.84432206977056   16.32433029571565
In       21.48313445867338   13.85488178640488   15.58556538470080
In       20.26630724311187   16.10289718331592   17.81654383991800
P        20.12252360056922   13.57213657406942   17.66987995958135
P        21.87979141012053   17.83227297133252   18.70697289536442
P        24.56076778801933   19.36963842568774   16.23917314233729
P        23.05135261861941   15.74098966983947   15.08371641562963
In       17.74037321348366   13.30387789833044   20.37192318779938
In       22.81228511355220   17.20012672388260   22.81726641312564
In       21.82833089383312   14.64038853482566   20.65132700246360
In       19.30079019875810   17.07196912401862   21.26156048483363
P        19.49987258805042   14.61151896743192   21.56913312346027
P        21.18343803712052   18.64472602961239   21.62385232676713
P        24.66560814985499   18.73027651250126   23.43130195494162
P        23.74398644498390   16.26946121093399   20.69079445163386
In       20.86090971759234   20.96762605161101    2.69307735319008
In       24.78975790650846   21.00695484983488    3.06948000308546
P        22.68487570744023   21.51878031288362    4.23164390632142
P        27.13185775086373   21.32586885873953    3.76581136712655
In       21.46785388600192   21.08144942400681    7.46735705622064
In       27.24007894096455   23.50049867948401    7.36631049270163
In       25.04440983160485   20.28690739666392    8.20904732142584
In       23.85984263865777   23.41653069488509    7.93856296285968
P        23.11828875627264   21.43345090409179    9.29896723271798
P        25.32155308887998   22.67550765397571    6.07460844153700
P        27.01382543898182   21.62145050327288    8.94859815215854
In       21.59571329745888   20.20734251579269   13.00371009607819
In       26.78524029568296   23.45589629180385   13.19013377384695
In       25.09358609782710   20.46101060180333   12.61912193745312
In       22.92193520996832   23.32079444437543   12.45464972327710
P        23.41059805473110   21.52560316337289   14.12695009101121
P        25.14433567159686   23.43331781417589   11.36794663167595
P        29.19804640978225   23.87851127842661   13.14033749422865
P        27.05008594122045   21.13248206850164   14.04194419489093
In       21.20505040758793   20.21402185122188   18.91248398861450
In       26.79109096107124   23.51275572883090   17.80484414351779
In       24.55608754388206   20.30154543386372   18.55327801493488
In       23.27890928927625   23.34317529053843   17.42835686033061
P        22.89857382514150   21.94346160234065   19.41625590954754
P        25.25024223740196   22.56746045694815   16.13237608071162
P        26.66157839921264   21.46792149140871   19.18576397491707
In       20.52337666895841   19.45718748860494   23.88293958069741
In       23.74805937561956   20.84622355122341   22.56084941557653
In       20.09293682607084   22.71679324343839   22.05373619157509
P        21.63818505157673   21.64625548649676   23.58077771271990
P        25.68923119883518   22.26522041780678   22.04775251216660
In       21.61991637409854    6.14545911898468    4.00415437961373
In       19.15484371934642    5.22198367817253    1.51490547385116
P        21.25834404571164    6.47926160938814    1.58784111054599
P        23.96512632827856    6.88719726001322    4.38662741464434
P        22.05363131513711    3.77318377508842    3.64887548955469
In       22.55400591766324    4.91635014540035    7.53972987009740
In       20.47798028086814    1.88068646466100    6.55328010192953
In       19.04903206463353    5.49987187590439    6.91817232473714
P        19.22128386917295    3.59837051510334    5.37969220140602
P        20.71043546446003    6.16584105323967    8.63707885095025
P        24.31864456454294    5.96221435001152    8.94462787846553
P        22.32957110607353    2.49104773632981    8.06984686751431
In       18.17816390053700    2.20162826356843    9.48754427776952
In       23.01807431699169    4.95730332278769   11.87477769492130
In       21.48637923011963    1.91577868989656   11.61408033623683
In       18.93736658986036    4.46772240888467   11.84184625983517
P        20.29118618171508    3.39942685821895   10.02987383083992
P        20.84486102846877    5.81367654307270   12.75445193895484
P        24.27744147120743    6.36244284582248   13.48710166286317
P        23.27368061067532    2.79499747044342   13.06568031967898
In       22.78898793091671    5.99418441479898   16.61639263128596
In       20.14270594630447    2.56985689785711   16.99831358535242
In       19.61384688222407    6.05994066882552   15.74748826031372
P        20.47504074211540    3.87262064590890   14.96964308928320
P        21.49402286870775    7.59426592461124   15.18211450985970
P        24.46866593055919    6.74807962046521   18.30523969468276
P        21.96936616724086    3.98292402198479   17.85049454536031
In       23.88484290382840    5.35003184502029   21.23697808885725
In       19.86754806792474    5.67591194860581   21.16997390446140
P        21.95434925163664    6.24457524645991   19.94933745779069
P        26.13239104617215    6.36807554088181   20.97910595818378
In       21.49527440379532    8.79586305370482    0.76140953061628
In       25.62166373228971   11.80606746710942    4.01184420043426
In       23.68812321202668    9.06359389569338    3.25093476917050
In       23.26702107512593   11.83907115869923    1.40248870320331
P        21.64664450747453   10.39976772463662    2.67995217069399
P        23.83757522549469   13.43802947359069    3.25117194151329
P        27.74538877209944   11.92064765463460    5.31381811897033
P        25.88583796861382    9.89646331585475    2.43625865607479
In       21.20606765583056    8.36544313868860    7.58952745468203
In       25.62394347230231   11.70435150990095    8.49438114339073
In       24.92180169218668    8.33967581939243    8.47531725214762
In       22.99520122136651   11.33409129670883    6.40350398584820
P        23.40344733414645    8.87363959080084    6.57107212657898
P        23.43639027549612   13.01369479831173    8.20336523819979
P        27.91415987835483   12.34051469792229    9.29115266010471
P        26.35480804761670    9.82609181223381    7.02237223741472
In       21.20356378562794    7.83868019616384   11.34884534620239
In       26.66853730493711   11.30613117159544   12.01724189848147
In       25.10015094502495    8.64949413882615   12.97691406366896
In       23.30494447399005   10.69523057354333   10.76636577806075
P        22.69173368503888    9.28918618098643   12.72488105328642
P        24.35691805988488   12.09153045546982   12.54251220800897
P        27.97615235663338   11.95888066062310   14.03078994006363
P        27.12363571799388    8.90447575234696   11.51023700762353
In       21.70162865048792    9.06476745423473   17.18369863423036
In       26.69911917330218   11.65544102788785   17.47887897788394
In       25.36335476753600    8.56754210745128   16.83681469661075
In       23.78479292424507   11.38951852093125   15.49476517289852
P        23.79784576822938   10.32937308748466   17.71983833710115
P        25.70302794598212   13.01122490709049   15.62557192780502
P        28.33321741413937   12.82565534128234   18.93082052568301
P        26.84766314116567    9.44695243654906   18.65879667034469
In       22.18739023944235    8.46336801312803   21.12844999241730
In       27.17116335679711   12.25691041795576   22.87225214067074
In       25.33569637981525    8.33778549072723   22.30532563213938
In       23.95781640863457   11.56671627010754   21.04531843499074
P        24.37233349150039    9.24529768986809   20.18228128948382
P        25.98055099894031   13.01079152234690   20.81503856356241
P        29.22398963786451   13.60150857522507   23.21797238769108
P        27.08907335881504    9.80879277431609   23.24821311442988
In       25.75237928211167   14.71328184352875    2.24836195927149
In       28.67238373864764   16.34853155270193    1.59470129772295
In       28.74813040534151   13.89117417689195    4.13108795667114
In       26.60538026584276   17.97384024899659    3.82359058343059
P        26.92724926865516   15.56428918879166    4.26160704950289
P        27.06614040923504   18.27183572552999    1.39927750057378
P        30.19130950078429   17.10522389743051    3.32834425759641
P        28.83077462913783   13.85861127438896    1.65255703095350
In       24.99677381951275   14.33255998395096    6.76432812224906
In       30.09199793426005   17.33257432873628    6.77657987688931
In       28.35534445489175   14.26868698001092    7.76303560826432
In       26.67296339055359   17.24160023333957    7.92133283487496
P        26.20631009448440   14.96773641546592    8.83976532904700
P        28.81191574182429   18.23195371274009    8.70908523088944
P        32.23231379769890   18.21152747008175    5.89811476710725
P        30.56460183892010   15.34949371632016    8.18853015189159
In       24.95082559197388   14.41026953009017   11.82879971700732
In       30.08695558735855   16.94517061154141   11.82807145362471
In       28.18121835637681   14.24386577777166   13.01885340698104
In       26.51949085517127   17.39356966633162   12.67270944299214
P        26.06834479154507   15.26876927070097   13.88631457351594
P        28.74577683869821   17.99276634917877   13.63418401786139
P        32.42422487193487   17.75533268597483   11.96320006986681
P        29.23098886866484   14.81153674746003   10.83212111223516
In       24.23097802292753   14.53859022224622   16.96164022764697
In       29.92452183091059   17.66817830432027   16.76565678463670
In       27.84333694513926   14.80984591349375   17.48536680236272
In       25.89567494443477   17.48108843460122   17.21081665427772
P        25.76374884483718   15.47323012075726   18.70382695449914
P        28.04610310761930   18.06929323659516   18.34734068635429
P        31.85607058160288   18.56305111128410   18.05019215808097
P        29.30301569261744   15.54895548850485   15.60885208619061
In       25.24230629051788   14.95573369264523   22.19623384010385
In       29.82555958896954   18.19736192083722   21.97826570191244
In       28.66186136157415   15.11838466811421   21.33864507620543
In       26.24078663864980   18.30303321351684   21.56088302595095
P        27.16083238578043   16.39380631535223   22.85126725990781
P        28.19628787100723   19.71680145511326   20.88185655033333
P        30.18110498955257   16.64342134022129   20.06181289848471
In       28.44788381375286   20.23704736661282    2.00967696616668
In       28.32366432971156   20.24606359208627    7.31920038504927
In       31.94598287976597   20.52803975870880    6.64975698149417
P        29.83784240526515   20.89802501714045    5.49661505510653
In       28.53047041077160   20.10173965994940   12.32554563464772
In       31.82191849170010   20.01455208860060   11.18881297203615
In       30.08846694441567   23.17085381311987   11.00493625065325
P        29.68343187834410   20.85265583256436   10.23813260125534
In       27.71319891281493   20.29557386849631   17.24355451340886
In       31.43764354928208   20.88107015232822   17.32364023202510
P        29.53274943632024   21.15142819672749   15.82996519158576
In       27.84354415190609   21.33649637494622   22.72282180990388
In       24.63113545074658    5.54837370415055    2.41052878433066
P        26.69376882603702    5.79055103799401    3.73490466294124
In       24.30999320445719    1.83737995395744    6.75632810692616
In       29.38955376105039    4.65824520036964    7.96109612525112
In       25.85600689509979    5.41665172339016    7.06429112568628
P        25.40975225019941    3.58608111139872    5.47415922903842
P        27.54133637681515    6.08110473203762    8.78294057482701
P        30.75824822362591    6.06423740469746    6.54294039434009
In       25.27339665618447    2.23879929040819   11.73844740634986
In       29.37586556814059    5.16167389598968   13.72563398316702
In       28.50654079679865    2.74131144898451   11.27494375305526
In       26.34593407219428    5.62810320833174   12.29788636498284
P        26.51134847995842    3.96318277419409   10.44607313724942
P        27.29107985782538    6.30410321666827   14.50745932778770
P        29.89397749851518    6.24328533663416   11.58063179755436
P        28.28007440963043    2.95990926834063   13.68334452332792
In       23.93255889353111    2.68790811526186   17.08000798325319
In       30.79586263060161    5.71220801651627   17.72234781938387
In       26.48479612652020    5.38002081048323   17.77207894727184
P        25.47576102084965    4.16058355158159   15.88479955588070
P        28.56722991882054    6.68746335182774   17.48236217568014
P        31.98814303038786    7.23499883099497   16.26311220105035
In       27.86799144622421    5.96047985125165   22.69012588139355
P        29.21696127380088    7.17861773755468   21.07073062553996
In       27.32967404599622    7.86900570280196    2.55436270832515
In       29.03284059775479   10.66758232045212    3.58278591054092
P        29.16362423789833    8.27503418721027    4.14476646932010
P        31.34557900045630   11.54159296469251    3.47546170606257
In       28.11654651239752    8.09205510436602    7.42229067558732
In       33.46962146914235   10.73100317357955    6.99590463512720
In       31.47950231342094    8.07899064916352    7.75731438439065
In       29.66100660149385   10.92901191928688    8.23600318172890
P        29.62359344031456    8.68120111299467    9.33110185643357
P        31.94289812809924   11.88286790604255    8.56863503289997
P        31.57577330991796    9.66114132865672    5.84789528311986
In       28.36125970001004    8.36671173427588   13.60367766975398
In       33.54748576739713   11.08710138356318   12.21107912454001
In       31.63027927968860    7.88842498148703   12.21863049242113
In       29.96391834723890   11.12023185027013   12.78329303837130
P        30.68144695589702    9.13983047396300   14.13258669141207
P        31.90083363780593   12.61422054640222   13.31046997619015
P        34.91965640657910   13.10158087544616   12.60390966764550
P        31.97302195840209    9.85833747682998   10.73973333682421
In       28.99364387641694    9.13273989338711   17.41981147327636
In       33.65079753779044   12.67658890715826   16.93135277296719
In       32.63383374933989    9.30049967348145   17.43435081249912
In       30.23956894253192   12.41949521648931   17.37979520367439
P        30.76554566440547   10.34705680168501   18.66176921862689
P        31.90646242451134   14.23641629557606   17.76137855867866
P        32.42823719653832   10.97958884012572   15.62297151873358
In       28.77689364858582    9.56051876942893   21.46117080686552
In       32.63730519294722    8.70359395572551   21.61253081212555
In       31.26927281583606   12.32947020325236   22.71021956696470
P        30.86483973950327    9.89678752129358   22.74863612397245
P        31.64545954194847   13.21450498941995   20.45104342547831
In       31.12746212307311   12.98323243229784    1.52037671992957
In       31.59858512226060   13.58072890672951    6.76154637673321
In       33.70497796445694   16.29137698016656    5.53310324102054
P        32.73735391635164   14.23312453614180    4.68711640318716
In       31.55260520351532   13.99955512165680   11.28492512364213
In       35.33372070303285   13.64831217716535   10.27601848794664
In       33.74357855697141   16.89813930486379   10.08431358456577
P        33.17803474012639   14.56565117302805    9.47403380926634
In       31.75081067323819   15.09070972729951   15.43200185090723
In       33.78171718298975   17.61181648529568   16.85779071687415
P        34.03631099918560   15.93606234875238   15.11538993312378
In       32.05972476080242   15.50487572137226   21.22512933676077
