     522
 i =       66, E =    -16418.7246225710
 In         7.8334276137        7.8350570099       16.0453627521
 In         8.0592753426        8.0661414796       22.1458443194
 In         7.5211550010       10.2894925369       13.2284815914
 In         5.2655617132       13.4128185399       13.4164690724
 In         7.5240952158       13.2303492828       10.2868787145
  P         5.9621294629       11.7161723652       11.7129437285
 In         7.4937185966       10.5438564011       19.5699898063
 In         4.8561466230       13.9791184948       19.0488002106
 In         5.1694204802       11.1233164505       15.5385330105
 In         7.6383629440       13.4828480203       16.5006368577
  P         5.9202320790        8.8302743933       14.7066730922
  P         5.9896422999       11.9983578823       17.9196921798
 In         7.7171487634       11.0229782703       24.9920862863
 In         7.5849638736       13.2193789447       22.3867821189
  P         6.0937110016        9.6319281813       21.6130990096
  P         5.9678403115       11.2787715312       23.1333426880
 In         7.8344972155       16.0431384124        7.8317442473
 In         7.6377606425       16.4999236139       13.4806695278
 In         4.8564534646       19.0379936845       13.9832836635
 In         5.1689575175       15.5324906163       11.1254974653
 In         7.4930422731       19.5622078782       10.5363111307
  P         5.9211169359       14.7075331337        8.8289947388
  P         5.9880067949       17.9166381492       11.9960968457
 In         7.7208004512       16.4323486548       19.4750765713
 In         4.3230109657       19.1242773206       19.1336512874
 In         4.5576219205       16.6504245027       16.6593551011
 In         7.7217585664       19.4640299998       16.4407989690
  P         6.0991957942       15.1344894686       15.1349783565
  P         3.0122429832       18.5759287423       15.6579044560
  P         3.0128006961       15.6543562367       18.5910885760
  P         6.3309662031       17.9794741264       17.9883470182
 In         7.7487316358       16.8176205379       25.0072185883
 In         4.9014973420       16.7864856767       21.9119186310
 In         7.4831183349       19.3154340350       22.4135201149
  P         6.2593593949       14.8817562489       20.9562461550
  P         2.9910945735       17.1716330350       20.2373187988
  P         5.7825423797       18.0902456455       23.9299380821
 In         8.0644615741       22.1400311057        8.0577495825
 In         7.5712222945       22.3713767374       13.2089856024
 In         7.7001228854       24.9819543412       11.0087735717
  P         6.0939215422       21.6004452482        9.6155966299
  P         5.9578149979       23.1175369510       11.2647422557
 In         7.4721998537       22.3896836071       19.3254258775
 In         4.8936966658       21.8955888968       16.7886139770
 In         7.7257342014       24.9844437551       16.8048998687
  P         6.2590335350       20.9443889544       14.8869254618
  P         2.9870693526       20.2200957843       17.1769139784
  P         5.7739233588       23.9073485222       18.0961675543
 In         7.8997642888       22.7245663446       25.2631125371
 In         5.6393431656       22.3676095383       22.4030287871
 In         7.8895105756       25.2282267077       22.7406372208
  P         5.9761737490       20.6658610820       20.6861552752
  P         5.9545637000       24.0737432633       24.1061141390
 In        13.4208637409        5.2644531009       13.4000791357
 In        10.2869383012        7.5278382466       13.2286396843
 In        13.2275843428        7.5209319727       10.2857409017
  P        11.7093580536        5.9640593706       11.7133611616
 In        13.9678301794        4.8466213789       19.0368926557
 In        10.5369850267        7.4927441203       19.5664113303
 In        11.1225914734        5.1660930148       15.5241217313
 In        13.4757639597        7.6337916613       16.4976140369
  P         8.8262109302        5.9244583783       14.7023073950
  P        11.9875605551        5.9857334331       17.9127974520
 In        11.0111231886        7.7071776492       24.9884835618
 In        13.2089829798        7.5724367564       22.3769055883
  P         9.6170517382        6.0956184765       21.6077141780
  P        11.2648353997        5.9614804388       23.1264996342
 In        13.2317262128       10.2905656442        7.5222810169
 In        10.2908864911       13.2305536561        7.5183002079
 In        13.4150352748       13.4272320683        5.2657411407
  P        11.7214481712       11.7185391608        5.9594808380
 In        13.4337066009       10.4518274883       13.4324385362
 In        10.4518289501       13.4358689222       13.4344162582
 In        10.4388433289       10.4401906783       10.4363843734
 In        13.4369287826       13.4377818344       10.4503358913
  P        11.6261559228        8.8325101162        8.8281049316
  P         8.8324492781       11.6281297990        8.8273198306
  P         8.8289217643        8.8333546791       11.6227606197
  P        11.9566636269       11.9584413804       11.9539423865
 In        13.5162316283       10.6430870241       19.4092242251
 In        10.6478938312       13.5197760870       19.4120567956
 In        10.4731246804       10.4765949655       16.4419518038
 In        13.4910149955       13.4918354606       16.4112943263
  P        11.9100193886        8.9405530985       14.9013730788
  P         8.9376128409       11.9134199858       14.9017299160
  P         8.9692279830        8.9733295048       18.0551609360
  P        12.0090583022       12.0101654342       17.8741702879
 In        13.4578679920       10.3721189974       25.5100309176
 In        10.3876948564       13.4680015297       25.5198259361
 In        10.6092495250       10.6099543685       22.4432534879
 In        13.4946675933       13.4913063160       22.5281900891
  P        12.0134654813        9.1877084363       20.8328232908
  P         9.1902299995       12.0193117575       20.8352743084
  P         9.1685038596        9.1712956773       24.0938022688
  P        12.0266054406       12.0266974708       24.0433682894
 In        10.7121006561       10.7056676434       27.7912763876
 In        13.2412184199       13.2383328905       28.5189849125
  P        12.1417821283        8.7040035697       27.0111367411
  P         8.7181445051       12.1489088889       27.0158042147
  P        11.7406348149       11.7384531406       29.8384645641
 In        13.4892347849       16.5044733562        7.6395248899
 In        10.5447123111       19.5659254336        7.4926065443
 In        11.1274389629       15.5425420044        5.1707643969
 In        13.9927253407       19.0479639466        4.8626339884
  P         8.8331899359       14.7101733569        5.9167683586
  P        12.0055785541       17.9224847469        5.9895105024
 In        13.4915238209       16.4113479155       13.4905050897
 In        10.6449246318       19.4098044839       13.5153138718
 In        10.4768388150       16.4416618827       10.4721136442
 In        13.5212293062       19.4119909323       10.6469230736
  P        11.9160640404       14.9051990667        8.9350864088
  P         8.9732399006       18.0526507863        8.9677165067
  P         8.9397388160       14.9034825601       11.9106752677
  P        12.0109561532       17.8742707259       12.0077754622
 In        13.5317827911       16.4820549149       19.4563915605
 In        10.5664556554       19.4663697775       19.4840797897
 In        10.6113202379       16.4606150074       16.4612694176
 In        13.5291521484       19.4548655535       16.4773320815
  P        11.9825999726       14.9382337253       14.9373882419
  P         9.1483355565       17.9466491949       14.9765783237
  P         9.1483911694       14.9776260129       17.9492443927
  P        12.0401484899       17.9794581997       17.9798980201
 In        13.4926273409       16.4580460351       25.4657361046
 In        10.4151213840       19.3679084836       25.4487610648
 In        10.5574793735       16.3888949062       22.4618057278
 In        13.4971165041       19.4292179292       22.4762317053
  P        12.0798547797       14.9790127324       20.9627302613
  P         9.1248998500       17.9541067841       20.9866473720
  P         8.9613711134       14.8736016798       23.8768104693
  P        11.9872419896       17.9358709949       23.9553132224
 In        13.8290915068       17.0051064601       30.7044875921
 In        10.7404560179       16.8684744171       28.0247240979
 In        13.4252214129       19.6377182334       28.5402356541
  P        11.9794724396       14.9301027915       26.9285823694
  P         8.7540046929       18.0974659809       26.9728379215
  P        11.7235286068       18.1890563808       29.9585366072
 In        13.2203675211       22.3813551235        7.5833812746
 In        11.0197483841       24.9854766758        7.7136242883
  P         9.6311776456       21.6068412745        6.0925429432
  P        11.2787800551       23.1261181246        5.9657569501
 In        13.4910951350       22.5288723664       13.4908557265
 In        10.3677321932       25.5019703391       13.4516934214
 In        10.6078013556       22.4403632036       10.6058758473
 In        13.4673899354       25.5159526330       10.3812883774
  P        12.0185689211       20.8321563557        9.1890040336
  P         9.1669378132       24.0900344899        9.1657997004
  P         9.1874607451       20.8300295553       12.0115939518
  P        12.0257315960       24.0407329711       12.0210428058
 In        13.4438779175       22.4399150358       19.4219361803
 In        10.3710721725       25.4337894842       19.3537611951
 In        10.5383660328       22.4491731105       16.3835016651
 In        13.4574704010       25.4582660900       16.4371403290
  P        12.0745281417       20.9612667222       14.9755762191
  P         8.9443840049       23.8605803133       14.8624661768
  P         9.1258492293       20.9721330626       17.9668353738
  P        11.9599492621       23.9471845078       17.9283317586
 In        13.5747550737       22.4528473725       25.3792246971
 In        10.1834540974       25.6484895261       25.6646582086
 In        10.5949362210       22.4775429742       22.4903577090
 In        13.5161381792       25.3798099650       22.4268758367
  P        12.0249805864       20.9563578227       20.9879279675
  P         8.9848591555       23.8482050423       20.9111121107
  P         8.9959452485       20.9036100111       23.8709101871
  P        11.9138070633       24.0695979201       24.0803195483
 In        10.9439665091       23.0143163775       27.7877525629
 In        13.0113504002       24.9942758501       27.7687798443
  P        11.9914887130       20.9102147414       26.8045532583
  P         8.7117524673       24.0814481414       27.1931170317
 In        13.2305833624       28.5105151134       13.2273620227
 In        10.6986456910       27.7852870483       10.7049094764
  P        12.1450276556       27.0102423622        8.7128594990
  P         8.6989792019       27.0043172163       12.1377393764
  P        11.7291860236       29.8333462286       11.7333526258
 In        13.3315990635       28.5464594553       19.5958030982
 In        10.6860188552       28.0132194461       16.8271073636
 In        13.7675018156       30.7182267114       16.9772914335
  P        11.9517404326       26.9185397390       14.9072996671
  P         8.7154216805       26.9572440429       18.0759855654
  P        11.6468277220       29.9645540745       18.1315878306
 In        12.9410996637       27.7920264953       25.0012234008
 In        10.8934800071       27.7867128194       23.0071280618
  P        11.9274677865       26.8062604317       20.8932144580
  P         8.6853395816       27.1599430178       24.1011982338
  P        11.7966834122       27.1322341402       27.1554841109
 In        16.0450277950        7.8374901370        7.8299367276
 In        19.0375383451        4.8435219957       13.9694553310
 In        16.4958545145        7.6343181150       13.4782101334
 In        15.5384916034        5.1682014690       11.1128077425
 In        19.5658472546        7.4939007263       10.5350343869
  P        14.7057982934        5.9232513073        8.8220788362
  P        17.9164037086        5.9887559553       11.9903217627
 In        19.1198523354        4.3073737395       19.1213313107
 In        16.4239047490        7.7050596182       19.4625703606
 In        16.6466105289        4.5486320887       16.6481275278
 In        19.4609148980        7.7037489235       16.4252941035
  P        18.5728504968        3.0022721272       15.6461456200
  P        15.1292831116        6.0959130149       15.1312804224
  P        15.6436995236        3.0036322812       18.5746214104
  P        17.9768613625        6.3182508761       17.9786406936
 In        16.8059227322        7.7271759441       24.9889630831
 In        16.7769475128        4.8850276792       21.8971102373
 In        19.3113509513        7.4593613674       22.3920919748
  P        17.1616569366        2.9774065638       20.2201822306
  P        14.8716625004        6.2457659058       20.9457895828
  P        18.0822672193        5.7640271045       23.9121800155
 In        19.5676418348       10.5465915060        7.4929163592
 In        16.5052909823       13.4869149694        7.6396823565
 In        15.5354071703       11.1336495518        5.1693164590
 In        19.0497935593       13.9911042994        4.8646219537
  P        14.7096192260        8.8359860846        5.9173223372
  P        17.9217332581       12.0042496640        5.9887109661
 In        19.4076073059       10.6419863293       13.5173917015
 In        16.4107464672       13.4908947007       13.4921690472
 In        16.4410718681       10.4750132497       10.4729551888
 In        19.4107253537       13.5199645004       10.6502531298
  P        18.0544410728        8.9741727053        8.9676114954
  P        14.9053586028       11.9160617119        8.9370367678
  P        14.9003907802        8.9378535528       11.9088208424
  P        17.8728136770       12.0088455770       12.0097635493
 In        19.4599420048       10.5405600439       19.4616002987
 In        16.4799817274       13.5322797752       19.4557077935
 In        16.4567897377       10.6083134569       16.4588528707
 In        19.4539265660       13.5306928174       16.4816382672
  P        17.9428573691        9.1431167362       14.9744642076
  P        14.9354328895       11.9818856002       14.9364690420
  P        14.9722483606        9.1431190798       17.9442040391
  P        17.9751730548       12.0371766983       17.9774760810
 In        19.3572310055       10.3805547381       25.4302718001
 In        16.4419014526       13.4608351796       25.4575984916
 In        16.3805091083       10.5368842125       22.4487734862
 In        19.4200208125       13.4498554400       22.4403559602
  P        17.9478828154        9.1066886084       20.9724462366
  P        14.9770831581       12.0746355832       20.9586060721
  P        14.8626190869        8.9456786281       23.8656274346
  P        17.9257814218       11.9617719874       23.9428576357
 In        17.0013761319       13.7762016793       30.7158536561
 In        16.8457271909       10.6952467512       28.0148110033
 In        19.6142572782       13.3540091359       28.5362203283
  P        18.0854484987        8.7209128605       26.9561307224
  P        14.9172339205       11.9555171757       26.9247072343
  P        18.1596131878       11.6604316511       29.9577991982
 In        19.4764725834       16.4504769655        7.7351137326
 In        16.4512063978       19.4777077104        7.7334473406
 In        16.6661863641       16.6625834491        4.5639226170
 In        19.1408676802       19.1381728913        4.3314953953
  P        18.5962103348       15.6663016494        3.0195135779
  P        15.6690133765       18.5916393765        3.0189905719
  P        15.1423219550       15.1406567524        6.1002882393
  P        17.9936620606       17.9928970969        6.3383662444
 In        19.4559771793       16.4816301992       13.5361333385
 In        16.4809873691       19.4581088438       13.5328878457
 In        16.4649240671       16.4645067537       10.6153003660
 In        19.4882397625       19.4914311558       10.5928257801
  P        17.9519938877       14.9827223367        9.1516572198
  P        14.9847185147       17.9523302252        9.1505365884
  P        14.9397779911       14.9393185535       11.9825489845
  P        17.9835941545       17.9838826847       12.0456175422
 In        19.4576491868       16.4765916850       19.4557066081
 In        16.4701926907       19.4648237480       19.4525616392
 In        16.4723617366       16.4752322717       16.4735604008
 In        19.4572596985       19.4604997054       16.4749904059
  P        17.9418162654       14.9755188011       14.9768811136
  P        14.9750336275       17.9439799036       14.9738710826
  P        14.9748662942       14.9764629272       17.9430754085
  P        17.9623983129       17.9680110337       17.9636283447
 In        19.3755281950       16.3645460273       25.3832350330
 In        16.4805067812       19.4066171497       25.4684260732
 In        16.4622805187       16.4674405426       22.4352891286
 In        19.4174771094       19.4233724100       22.4192236897
  P        17.9726347104       14.9895548637       20.9538923071
  P        14.9905086040       17.9757937208       20.9522218761
  P        15.0020984364       14.9980837401       23.9690349166
  P        17.9377664947       17.9328666103       23.9210663362
 In        19.0385174021       15.7894307548       30.8097859125
 In        15.8571227212       19.0323346321       30.7902616425
 In        16.4266497261       16.3996574033       28.3136297425
 In        19.5985846180       19.2742798301       28.3455215133
  P        18.0074651390       14.8516161415       26.9683650857
  P        14.9039206247       18.0141535390       26.9787782419
  P        14.8379069967       14.8216370501       29.8281089228
  P        17.9813696512       17.9275587953       29.8571894853
 In        19.3334998103       22.4126261123        7.4909995925
 In        16.8189044429       25.0000734030        7.7464273593
 In        16.7969913040       21.9086811714        4.9098234413
  P        17.1860374747       20.2378995269        2.9977725648
  P        14.8949040252       20.9531316416        6.2698985271
  P        18.1033356607       23.9246175590        5.7890195131
 In        19.4285496717       22.4797486740       13.4999150263
 In        16.4604348204       25.4673265807       13.4890354587
 In        16.3941084597       22.4622651600       10.5584917592
 In        19.3715416567       25.4517246833       10.4049883925
  P        17.9747103587       20.9885790186        9.1398351380
  P        14.8753540604       23.8715396575        8.9594593005
  P        14.9804767150       20.9638792344       12.0782597703
  P        17.9418359507       23.9598854669       11.9842938626
 In        19.4205098182       22.4279906847       19.4157996068
 In        16.3519562398       25.3871323706       19.3734741015
 In        16.4605291629       22.4367022095       16.4599228556
 In        19.4008370804       25.4690831609       16.4874674057
  P        17.9717505948       20.9568995886       14.9900212624
  P        14.9968649505       23.9726650761       14.9974608274
  P        14.9802784544       20.9578457606       17.9685656308
  P        17.9224696747       23.9248075823       17.9384355138
 In        19.4114938474       22.4008517502       25.4159695037
 In        16.4930646226       25.5254328415       25.4322832548
 In        16.4962695766       22.4447537589       22.4341152782
 In        19.4655754009       25.4006561453       22.3906244903
  P        17.9584154151       20.9452624733       20.9335732674
  P        14.9482892331       23.8723762800       20.9291156795
  P        15.0276073265       20.9224582100       23.9229882970
  P        17.9586262830       23.9481434936       23.9330539025
 In        16.6576081562       22.3275837845       28.6069826868
 In        18.9720380275       25.2238985671       27.9154404476
  P        18.0199935305       20.8505615949       26.9454388449
  P        15.1592732674       23.8864518730       26.9472461519
  P        14.8483321290       21.2241256782       30.0740757683
  P        18.5759662231       23.6345483992       29.8543114598
 In        19.6326080791       28.5464097360       13.4223207833
 In        16.9848520858       30.7060136499       13.8030628553
 In        16.8672199589       28.0212930104       10.7295866562
  P        18.0960248656       26.9699534094        8.7436414710
  P        14.9310541470       26.9253507150       11.9718011901
  P        18.1859563401       29.9594564068       11.7105174998
 In        19.2499561053       28.3483795589       19.6036021447
 In        15.7740020940       30.8184132454       19.0205347016
 In        16.3964091341       28.3136286159       16.4193744741
 In        18.9999434455       30.8114013064       15.8436772630
  P        18.0165666793       26.9793807158       14.9027023983
  P        14.8156752768       29.8163707705       14.8228248483
  P        14.8429247261       26.9750570246       18.0025160066
  P        17.9157986141       29.8638437787       17.9751675507
 In        19.2638322473       27.9113287869       24.8368533236
 In        16.5200404279       28.5741148897       22.2701834881
  P        17.7999937308       26.7539113823       20.9459792754
  P        14.7346519972       30.0760952792       21.1865373059
  P        15.0590580806       26.9713320647       23.8499548397
  P        18.6272412072       29.8566557470       23.2489059264
  P        17.8555702657       27.2355653646       26.8671552875
 In        22.1437571562        8.0685998792        8.0574073856
 In        22.3750210005        7.5715798683       13.2089089911
 In        24.9864591772        7.7078827771       11.0087085944
  P        21.6063685100        6.0971477868        9.6143850354
  P        23.1246797427        5.9624214575       11.2626337115
 In        22.3907351170        7.4591815079       19.3140897294
 In        21.8959920831        4.8847759633       16.7795051071
 In        24.9876797169        7.7259823951       16.8076056773
  P        20.9450876322        6.2447113588       14.8730354733
  P        20.2189247290        2.9767875644       17.1636288631
  P        23.9110137884        5.7635784221       18.0850667795
 In        22.7232064463        7.8848209980       25.2388069317
 In        22.3792976688        5.6286166632       22.3810520861
 In        25.2379954214        7.8849399283       22.7257058358
  P        20.6678015970        5.9565595286       20.6698174893
  P        24.0827734435        5.9450627648       24.0841991177
 In        24.9884524240       11.0239312057        7.7117991510
 In        22.3808939794       13.2208041933        7.5856189159
  P        21.6094074776        9.6345338114        6.0921454853
  P        23.1277387023       11.2830606004        5.9653907007
 In        25.5068439783       10.3696746999       13.4591208947
 In        22.5266382297       13.4893543745       13.4971013643
 In        22.4409879945       10.6086379299       10.6090111335
 In        25.5127024537       13.4638631509       10.3846921180
  P        24.0924103214        9.1729269195        9.1659202486
  P        20.8326116054       12.0189795402        9.1918763766
  P        20.8308928028        9.1870774193       12.0137863970
  P        24.0403039700       12.0243035714       12.0277178237
 In        25.4282990387       10.3797889923       19.3608059672
 In        22.4377605096       13.4474034049       19.4236988350
 In        22.4478596323       10.5360866900       16.3835580710
 In        25.4562749702       13.4598947958       16.4460689077
  P        23.8631443626        8.9437556152       14.8643978250
  P        20.9571093665       12.0726883711       14.9790752749
  P        20.9707379361        9.1057544815       17.9498166553
  P        23.9414646702       11.9609894006       17.9293072652
 In        25.6531533413       10.1596067670       25.6548394161
 In        22.4472719959       13.5437250707       25.3768044488
 In        22.4771472334       10.5853306936       22.4799486883
 In        25.3724271317       13.5430599255       22.4474301511
  P        23.8459976837        8.9751390460       20.9020685802
  P        20.9551962227       11.9946232911       20.9590383612
  P        20.8989417687        8.9752764893       23.8479537576
  P        24.0716971679       11.8984914061       24.0738634324
 In        23.0082514245       10.9110087398       27.7779184836
 In        24.9995965765       12.9685030122       27.7701790302
  P        24.0802327431        8.6832469114       27.1733711362
  P        20.9007937820       11.9492735984       26.7904034211
 In        25.0015016502       16.8164267683        7.7505700708
 In        22.4106498415       19.3296062300        7.4961879376
 In        21.9117030157       16.7956950392        4.9128220058
  P        20.2422305493       17.1835712821        2.9995460466
  P        20.9534236547       14.8951911006        6.2726613322
  P        23.9258040395       18.1028157998        5.7945415167
 In        25.4644461163       16.4531424071       13.4906717864
 In        22.4751134016       19.4302966005       13.4960333687
 In        22.4578143664       16.3908614866       10.5610619553
 In        25.4474392211       19.3644266601       10.4089973426
  P        23.8701277367       14.8742350248        8.9630312471
  P        20.9851662232       17.9735577160        9.1440547245
  P        20.9613250658       14.9784733003       12.0832049243
  P        23.9557419792       17.9366168705       11.9876536423
 In        25.3816256607       16.3634020874       19.3767936811
 In        22.4333918311       19.4305787798       19.4161662069
 In        22.4347749975       16.4663523315       16.4635452523
 In        25.4732180083       19.4024324289       16.4782661994
  P        23.9688197511       14.9963231478       15.0038268926
  P        20.9543991992       17.9752717160       14.9907414923
  P        20.9541387180       14.9868915284       17.9727578592
  P        23.9252070650       17.9320791809       17.9350916316
 In        25.4737430723       16.5566903713       25.4736155387
 In        22.3881877840       19.4695830195       25.3985598235
 In        22.4324117568       16.5017374963       22.4334797368
 In        25.4058301521       19.4735100576       22.3847593435
  P        23.8666108604       14.9582585227       20.9300435941
  P        20.9408795578       17.9707878957       20.9307379722
  P        20.9299264389       14.9582546938       23.8692108536
  P        23.9231108389       17.9866611544       23.9168141099
 In        22.2892183508       16.5534021077       28.5535407854
 In        24.8835236947       19.2790175689       27.8526679814
  P        23.8928249509       15.1118028161       26.9462926360
  P        20.9343274078       17.8211134100       26.7506480045
  P        21.2076740681       14.7641637623       30.0552571605
  P        23.2777324658       18.6615616291       29.8212819867
 In        25.2589359681       22.7384359780        7.9158357082
 In        22.7484712607       25.2479431326        7.9098040136
 In        22.4059288838       22.3868867453        5.6505412203
  P        20.6869267299       20.6837632390        5.9890975998
  P        24.1067906765       24.0914826357        5.9711906715
 In        25.3881170136       22.4342435599       13.5668875244
 In        22.4269808046       25.3902894366       13.5632298153
 In        22.4944661720       22.4948475521       10.6192857778
 In        25.6666230131       25.6578216466       10.2215855542
  P        23.8672919285       20.9169154206        9.0120338004
  P        20.9204114887       23.8676378713        9.0081339583
  P        20.9849583734       20.9894278307       12.0602163195
  P        24.0796337959       24.0812979379       11.9489212562
 In        25.4290988191       22.4167570780       19.4031534105
 In        22.4061940477       25.4128682565       19.4195345681
 In        22.4430032973       22.4427617077       16.4960541127
 In        25.4741330090       25.4887290093       16.4329598728
  P        23.9267565625       20.9181725170       15.0268796094
  P        20.9169161924       23.9289388491       15.0304066269
  P        20.9416585280       20.9446602200       17.9560579629
  P        23.9574166275       23.9630584058       17.9350169055
 In        25.0979781331       21.7964092806       25.0972663331
 In        21.9843750080       25.0681172073       25.0191052472
 In        22.3696900137       22.3640618341       22.3617788245
 In        25.0426703108       25.0142205519       22.1035412525
  P        23.9107045344       20.9386251680       20.8800780927
  P        20.9263868427       23.8995413002       20.8911736048
  P        20.8875014719       20.9267501813       23.8912926586
  P        23.9110194619       23.8083784305       23.9696434559
 In        20.6916231152       22.2180956198       29.0942323027
  P        23.5645682951       21.2436740247       26.9452920356
  P        20.9479587431       23.8891850069       26.9751469237
  P        21.5107298960       19.9474059652       30.0957660666
 In        24.9805412677       27.7862648474       13.0235123359
 In        23.0269291489       27.7946781324       10.9352682199
  P        24.1115933886       27.1743510590        8.7214648956
  P        20.9076753762       26.8228354585       11.9719868691
 In        25.1706129886       27.9976925205       18.9460942244
 In        22.2676663958       28.6342834230       16.6936789647
  P        23.8142287354       26.9853174836       15.1449187525
  P        21.2009822141       30.0888743244       14.8576931203
  P        20.8333182171       26.9386626432       18.0436885083
  P        23.5217168802       29.8833136069       18.6464434639
 In        22.1859196059       29.0338649122       20.7770683002
  P        23.9280210895       26.9617661093       20.9429288029
  P        19.9378730426       30.1060667916       21.4986212346
  P        21.2361032124       26.9442794921       23.5815380908
 In        28.5105579402       13.2288959148       13.2415071633
 In        27.7872095962       10.7051077551       10.7078517569
  P        27.0115944593       12.1491376936        8.7140428775
  P        27.0085834805        8.7046998122       12.1398434499
  P        29.8339206790       11.7393325091       11.7350376683
 In        28.5335288004       13.3517749441       19.6187051582
 In        28.0132942301       10.6921993536       16.8503781546
 In        30.7155687131       13.7697178816       17.0093025557
  P        26.9204700942       11.9505686781       14.9220007710
  P        26.9534091586        8.7191679671       18.0895089545
  P        29.9548090107       11.6551432726       18.1674065757
 In        27.7685839483       12.9717783559       25.0019465537
 In        27.7781786319       10.9130959276       23.0134870797
  P        26.7877192280       11.9482640861       20.9048327176
  P        27.1722339318        8.6841436743       24.0823150020
  P        27.1399690094       11.7741352808       27.1401529252
 In        30.7012986442       16.9762722791       13.8210861936
 In        28.5473222191       19.6214833408       13.4053559707
 In        28.0226023036       16.8555284752       10.7328971027
  P        26.9708575268       18.0913501344        8.7508735347
  P        26.9237060899       14.9230214591       11.9771021579
  P        29.9665507092       18.1634228937       11.7130633979
 In        30.8093885200       15.7892901129       19.0390460488
 In        28.3562485603       19.2621028008       19.6021893945
 In        28.3105665852       16.3976800415       16.4259552994
 In        30.8043190304       19.0143978451       15.8374949359
  P        29.8186497758       14.8070224978       14.8441412362
  P        26.9816671202       18.0118924078       14.8968717403
  P        26.9679834013       14.8512437105       18.0102649611
  P        29.8642674873       17.9264165086       17.9719978088
 In        27.8511076256       19.2844057983       24.8765985194
 In        28.5530714757       16.5477651932       22.2909616706
  P        30.0575284844       14.7621328257       21.2080938690
  P        26.7530357464       17.8166166569       20.9354007246
  P        26.9429390696       15.1105496915       23.8917733532
  P        29.8175421603       18.6553259462       23.2844592006
  P        26.9804533828       18.0587592803       26.9718789820
 In        27.7911909694       24.9830720692       13.0154085671
 In        27.8009440325       23.0126568553       10.9421018641
  P        27.1867736018       24.0986742901        8.7281800459
  P        26.8138271630       20.9031497969       11.9769531734
 In        28.0219611329       25.1854037002       18.9005835831
 In        28.6325258882       22.2751161214       16.6587965115
  P        30.0870737131       21.2054963941       14.8266693873
  P        26.9775071723       23.8324647595       15.1417379377
  P        26.9491229373       20.8397126979       18.0264334149
  P        29.9085746573       23.5398934405       18.5897354440
 In        29.0619703446       22.2049535857       20.7302711153
  P        30.0891830142       19.9520584204       21.5244719486
  P        26.9919339252       23.9417990498       20.9053708624
  P        26.9480673609       21.2539054833       23.5615642129
  P        27.1336685215       27.1368711370       11.8601828676
  P        27.1315098421       27.1538328666       17.6120573786
