116
 energy: -8.229585947258 gnorm: 0.000137485217 xtb: 6.4.1 (afa7bdf)
P        10.05628514773922    4.97630897684884    3.42319953197373
P         9.44556678331347    5.08960557325047    8.40489792971381
In       11.72186281326938   10.35156327945103    2.51182113822659
P        13.95375712430126   10.61735912465814    1.60193299444587
P        11.11318306290159    8.02602608522654    2.92661714974648
In       11.57940295403424    9.58249632342483    6.63773161176547
In       10.25715469407933    6.52140654757264    6.60619335620792
P        13.55293870472413   10.99222555704141    6.68537380910653
P        12.39914957700465    7.42120835472910    5.70132045902257
In       12.83482769136315   10.75365057221414   10.88922801632303
In       10.40338949639116    8.06887968350886   11.54300104858954
P        14.67027170788074   12.07671423682907   11.75900536485816
P        12.64322083531349    8.30655706801057   10.59006314400544
In       15.65237594044983    3.86185562289590    2.55024576234174
In       13.80764856572935    0.88619420813044    1.52905824952421
In       12.18751509657728    4.31329005385614    2.44972968809703
P        13.02740846264027    2.97448108309882    0.57383029838628
P        14.02302449415984    5.21772568696499    3.89484591082462
P        17.44998682330237    4.63771600593239    4.14089116377637
P        15.71971502530360    1.39999196117351    2.98203554577259
In       14.83992162307056    4.00022839205453    7.64843848871158
In       13.44812060999795    1.19343613079596    6.32754765313591
In       11.19538127686864    3.53306938465929    7.64549030098856
P        11.88336127052082    2.82601768691847    5.39180571247781
P        12.87854994206046    4.81814628489606    8.94490334284734
P        16.76243997008032    4.70634744265445    9.05870035976437
P        15.24809232136479    2.75241460954987    5.53604428249923
In       15.22172754056626    3.81486656718184   12.58554564713291
In       13.64051677063660    0.78735154040488   11.29922353248522
In       11.23514473944390    4.07746679778426   12.13501839486273
P        11.82377109537074    2.26883494745375   10.62675076153824
P        13.17564486608526    5.04131846056435   13.25182567971551
P        17.15562345693773    4.79747890582586   13.78919082792831
P        15.27541692272877    2.46674465775747   10.48203216353078
In       13.48344183984578    7.34932099903221    2.67617996914759
In       19.16228392523015    8.58973575068470    1.88931534185174
In       16.76727232499627    6.90282404479029    3.32556973820401
In       15.74076726319135   10.45487910621222    3.26288805685236
P        15.02574273032752    8.35784144187265    4.38873411862319
P        18.02543503025925   10.69762192048150    2.41942888538977
P        21.44722256286667    7.97412227739705    1.19279463749168
P        18.78100761298703    8.03909724254020    4.30265551358607
In       13.61581476653510    6.92023352124731    7.82294627697108
In       18.86379678952071   10.03481771754397    7.74478422660102
In       17.42080115211846    7.00398778415621    8.29495790826362
In       15.40693994541139   10.11780916400567    8.02554278159639
P        15.33634713855167    7.97585498603171    9.30455671662152
P        16.97759554121610    9.32707015133967    6.28202443470050
P        20.68604086857035    9.48682857246235    6.12103975018339
P        19.30717294027669    8.21249861566654    9.42189630443296
In       14.10175347066019    7.08217124081028   12.20481898480086
In       19.27085227211852   10.33547902349180   12.44225246138849
In       17.01272604197385    7.21401451016111   14.30957826482342
In       15.84751756199298   10.23312526146919   12.87643760433019
P        14.83783901908387    8.38588692824858   14.16969485541987
P        17.38759954688372    9.28952331110903   11.19557266107540
P        21.16878784314314    9.58960000834979   11.01060424489309
P        18.83472445787906    8.88607525655687   14.39971501364554
In       17.94060450635876    0.85600128832006    2.09198712601648
In       22.97739905143923    4.27830217943133    2.68844671724104
In       21.65002374710189    1.18766187470254    1.26835330442678
In       19.21131087172219    4.45069812548048    2.37837587503598
P        19.52315423957515    2.39165874917925    1.03131971090790
P        20.95426576343848    4.25993634539121    4.13182146979714
P        24.62735884048170    5.45277636158345    4.13922702368331
P        23.07478786816262    1.82962165261339    3.17063027578414
In       16.86307891256572    1.11436840614408    6.50533402637292
In       22.03053696478938    3.86047390037483    7.39121631713387
In       20.32309276825857    0.68243283622456    6.46413467035234
In       18.45018947470398    4.07002242711379    7.29537395689742
P        18.78279003379190    2.36344156278266    5.49364969801892
P        20.24494345013393    4.84652631692083    8.86401069132836
P        23.65420176502899    5.12914030929169    8.80593211073842
P        22.17531774534284    1.42608422754367    7.91617036459333
In       17.18061682943904    1.11052783203997   11.33055416649669
In       21.91215037942037    4.43688524005191   12.54148006141824
In       20.54704028048685    1.34245958665553   11.41583500229307
In       18.57812303934662    4.75877750336041   11.77621082452181
P        18.78134283755908    2.72698232312209   10.32921722945017
P        20.55697554259734    6.25092528936889   11.44719234807166
P        24.04907787566011    5.18869381086792   13.54331297667856
P        22.18253039768518    2.99409672447822   10.50715128302872
In       20.91363823650261    6.73141769211317    4.40202796180939
In       24.76359655886014    9.39838360365858   -0.25662335861691
In       24.48629159670423    7.57713134522732    2.85472302669201
In       22.21907503831321    9.96342684990630    2.42570204273142
P        22.70747408211532    8.46720644954676    4.34932070089104
P        24.43391855480732   10.76447239403529    1.72291288767204
P        24.30549952230345    7.11693204535713    0.45311324252537
In       21.09321694354987    7.07115792234103    8.06552213887217
In       26.49434838228663    9.53353509763171    5.72702695416241
In       24.48110814131726    7.10595426486904    7.52223487066926
In       22.43843699863539   10.35742731342987    7.64950298555064
P        22.98836875300976    8.38025575051605    9.07063151135571
P        24.50490714126222   10.74279012335355    6.39011052961882
P        26.42918379531634    7.08616837331035    5.98299293277555
In       20.72573097984695    7.47989817244066   13.61546229372594
In       25.91371010948621   10.25805133681161    9.97619417190902
In       23.87393412810210    7.26254485310209   12.19989328656832
In       22.79388217540069   10.70018436072888   12.50590566960232
P        22.86332562521331    8.69835893323846   13.94505890060085
P        24.58971666382442   11.81233135402904   11.26977829836653
P        25.68147471115352    7.89549972169760   10.61690811163940
In       25.32565541146102    1.50367022983246    2.21100090882461
In       26.69959134647338    4.96257245694011    2.85535314617213
P        25.80882794621770    3.57770352649876    1.04025127727548
P        27.88866722649927    6.98020800314483    2.22247988310123
In       24.20974515390403    0.69382465522311    6.74210411169097
In       25.47210838158546    3.97118953300183    7.51429731590033
P        24.46606124200970    2.83151428118583    5.55456749130396
P        27.28031069044049    4.87382162221354    8.92061800187708
In       23.91208650430947    1.61310816632178   11.68309806149163
In       26.14109071828103    4.18939265625651   12.76433401836151
P        25.62060302265758    3.04761983864305   10.66923643176095
In       28.35280211776352    6.36097478797010    7.32863134261708
In       27.74614184678002    7.59329529316008   11.87288354899678
