52
 energy: -3.489776473949 gnorm: 0.000080057536 xtb: 6.4.1 (afa7bdf)
In        5.46675768736266    1.34820658563073    4.32478155769240
In        4.66525941193497    5.56233993640601    3.76295301675477
P         6.13217725632642    3.59054313367539    3.65380208917027
In        4.42112820023239    7.02590006615467    9.54964074661680
P         3.53457190699652    7.45694272476569    7.32538388230818
P         4.95873097044476    4.63235123113385    9.73284532327260
In        4.48555698437484   10.00199980251202    4.34870977636786
P         5.36142892555004   11.26323600734277    2.47932725229230
P         5.58368425164116    7.81502735456234    4.12137759648723
In        5.08866548171520   11.09343773321114   10.50008675549095
P         3.83572778755329   11.53225241727283    8.46719763933129
P         6.37026929169992   13.04856059033186   11.27920742940739
P         5.99796140573352    8.76499076062850   10.42176102185477
In        9.06819597036106    1.97822049717139    3.79463442504582
In        8.31031849782038    5.93454362291367    4.32831667902404
In        7.36267735678131    4.00118293278251    1.54530430549386
P         9.18311282563772    2.37055121530897    1.40127974913675
P         8.39472981840040    6.22707335604978    1.88607625597356
P         9.63723948757954    3.96890932377740    5.15211757994907
In        8.23189407101002    2.57684959474062    9.72493492376007
In        7.87439032544486    6.25039032750957    9.41722690635422
In        5.71044392706519    4.59522446393168    7.40194806261196
P         7.77240080315576    3.24992482697990    7.43510222818830
P         6.83463385722499    6.81735087111959    7.22809770664400
P         9.51057552126311    4.59095612509873   10.28524325444507
In        6.75652151765688    8.11092309408460    1.93945592832316
In        8.11135356497504    9.92351845531331    4.44469539792486
In        7.08078984125868   13.75561706891318    4.86579217683941
In        7.52270642705673   11.50172097129143    1.40293439490843
P         8.83410308944583    9.51320422976512    2.10404741547911
P         8.70730128432241   12.07252008104657    5.61127386780560
P         9.17961424433562    7.94298809856164    5.54212492763383
In        6.39873797796217    9.15115155200074    7.98939716068715
In        8.47753351790533   10.81550305782984   10.15153768738019
In        7.07134440697331   13.78536123555782    9.04941136553265
P         7.23664789775861   11.49634179822466    8.10361428880740
P         9.02126232252395   14.88265527164674    8.09374440267271
P        10.35771795385584   12.36804815601342   10.46539075717732
P         9.02019798606501    8.43224120849138    9.69529147889449
In       13.74093573033323    7.16315930731550    1.96912796146264
In       11.19140506891014    4.62792764262271    3.33300227709619
P        11.33132137290423    6.79308341548404    2.15400074521211
In       11.27018160441552    4.22559810614544    8.58871726322273
P        11.04026289936134    1.99677147976865    7.65033958234851
P        10.44736114702766    6.02356230788130    7.10889820456820
In       11.12055450134471    8.41751587162346    4.03858857646830
In       13.69250254117644   11.25102819809476    3.31422708134096
In       10.20955854966397   12.46365404878160    3.67095333361611
P        11.43208202799497   10.52804988403247    2.75276645774506
In       11.11689323185624    8.02618315514476    8.43729308807514
In       11.41109465781942   11.81695502789010    8.35294622817968
P        10.33367761172824    9.99767177553353    7.11611178687923
