16
 energy: -0.806235149816 gnorm: 0.000480181498 xtb: 6.4.1 (afa7bdf)
In        3.43813761847819    0.39425131935996    5.62152953349493
P         3.84753128292618    0.79712793590206    7.95376056022073
P         4.01067502474482    4.30091277790338    6.47048868878780
P         4.57681975426588    1.46067481394712    3.77142434724205
In        3.66562774214500    3.67341071943110   10.33213541838149
In        2.59320356322237   -0.06712989880366   11.32894987999775
P         3.38710998274150    5.38292389668225   11.98917318668246
P         4.50904257540785    1.40173255973818   10.85998194422857
In        7.40372318191995   -0.69312934105940    5.86127314292130
In        5.72920442595455    3.09680821050576    5.22008458976112
P         7.04808752496090    1.54898767139678    6.61165920344792
P         7.33399457764316    4.47655642830524    3.99084308414450
In        6.59677726339224    0.19877077877234   10.38335175958549
In        7.41589297148212    4.08770628619676    9.84025796736035
In        5.12953470672397    2.10109012838770   13.17499490204118
P         6.70885780399843    3.57968571333138   12.07073179169503
