42
 energy: -2.773739781068 gnorm: 0.007361249107 xtb: 6.4.1 (afa7bdf)
In        6.58228110681871    3.87766415413036    7.62972216369228
In        6.76096856806933    0.48200824803702    5.97478859644726
In        3.82913127357297    0.98704254917003    8.04649158429603
P         5.85713535049757   -0.35179633281089    8.07224029176686
P         4.44363499949821    3.26312097753340    8.67754758163335
P         8.51430360570060    2.87224907368854    8.79612553649401
P         6.52784020063841    2.84485064532466    5.39370216127780
In        6.74863857262309    3.53178256418295   11.97704545782038
In        4.77804517314474    0.52219430201271   11.79385074833544
In        2.58422760375745    3.22796879552197   13.58930494061426
P         2.96065476123329    0.84701350074685   13.37198230211664
P         4.61650841045686    4.33376109328519   12.88239411684605
P         8.42731983945801    2.69007097383689   13.60501141362114
P         6.49564368987541    1.62586893412755   10.38602561986646
In        6.67383847653796    4.05925776063966   16.19565033887179
In        4.67900878011664    1.12411546819469   17.05719190917537
In        4.11176426443026    4.96298616553383   18.42005542493755
P         4.55491791299121    2.63488977015034   18.94600065050870
P         5.12684486290300    5.95389848346989   16.45111838878404
P         7.52115055505108    3.05938009577154   18.27008347742255
P         6.41633402586947    1.72500989046505   15.41986278867785
In        8.51987840354706    3.88725867146908    4.44180558872575
In       13.26946546013174    0.87770713197056    8.23058476404450
In       10.44105682066906    0.52844997269991    6.01115952541920
In       10.48752287536651    3.84692853907891    7.66727143453634
P        10.53609335087262    2.89876293772498    5.39687025606264
P        12.58354817685242    3.15747904143620    8.75185314461996
P        11.19788965357424   -0.40070582689800    8.13145739352682
In        8.44256852586315    0.38406378992049   11.34154369760424
In       14.50353888821236    2.94045176643299   13.10304225722487
In       12.05795147268335    0.33909163519529   11.88790540764039
In       10.18272796699712    3.44563057360525   12.03051218357578
P        10.45160465323524    1.55180467001966   10.42769942669122
P        12.40871416274232    4.11086642285282   12.78064976077057
P        14.05663389411348    0.56075852450764   13.24725340266090
In        8.30994985715936    0.27502968982367   16.04403706821037
In       12.55904334587165    5.20021407594001   16.39336572512005
In       12.15196889322925    0.84615572557810   17.02487064882767
In        9.81477352394495    3.32880687707095   17.40250199288310
P        10.30754822776690    1.66281995760405   15.60496073810357
P        10.14950900844044    5.38920717143347   16.10514498761230
P        13.17006533387237    3.03293419142805   17.29621510292369
