300
 energy: -21.904105121354 gnorm: 0.000108539101 xtb: 6.4.1 (afa7bdf)
P        14.14341822232155   12.93829427364792    4.02502697395421
In       12.53837889977051   11.84307506989316    7.26986488261233
P        14.25037021919481   12.89319870339228    8.70074964937003
P        13.99988091880206   10.56242297129790    5.76271444316410
In       12.61709170295419   11.59771506722563   12.12429738701991
P        14.50285068799498   12.21033590490681   13.57411952632570
P        13.82981436420004   10.45092577255620   10.32805349525804
In       14.66562666366587   13.01285644876156   19.06386556490929
P        14.51063319232303   12.77863874724854   16.64814334747339
In       16.61341398248639   17.69687449094213    2.80647391107637
In       14.39009667651131   14.99353088994334    2.69932972511858
P        12.74332101682827   16.76159337041805    2.93013990477527
P        15.21205366204901   19.41550911530375    3.79816312712134
P        18.51439053328662   18.21126747388474    1.28926254066157
P        16.57614768670625   15.42205050422224    3.82502957052018
In       17.32455653601589   17.44358729109905    9.44969113772735
In       14.88587605998712   14.84121454236613    7.27296518240336
In       14.08751745208434   18.32249181743284    7.55957460119338
P        15.17368565999870   16.89004795648770    5.91219817341902
P        15.88533930385986   19.39913752555872    8.85514706411649
P        19.69564624850577   17.36633751338787    8.66483697400005
P        16.65456548740508   15.10213906895159    8.97582577317415
In       16.99191901635002   17.23369429042964   12.86958274023752
In       15.09031385145062   14.37987746756944   12.49363737148489
In       13.55541474785379   17.79690349133045   11.90143301776912
P        14.07395890994059   15.73975313396817   10.71333490051914
P        15.35129877717656   19.11675997254113   12.93169086695574
P        18.94538365363140   18.05012586702579   14.15187661721080
P        17.12110521396787   14.91997051201882   13.83949642277102
In       16.32135757127740   17.57305290736317   18.11205401276902
In       13.77826599657086   15.03776079093048   15.97934954036533
P        15.92090130827899   18.55128453512901   15.92140438744943
P        18.72691862405058   17.89071645610318   18.60844381222570
P        16.06463275011313   15.49425033468372   16.75712707716005
In       18.16597723779185   20.62034354837391    1.87138955860483
P        17.02118681860084   22.46436876523057    2.98826734956877
P        19.82620984349142   19.97837098283998    3.58888693734443
In       16.25458484176546   21.33238238030472    7.34289161815496
In       19.54420783755333   22.55658456317249    7.81244864486045
In       18.74118938824184   19.22230054842365    7.28770659599106
P        17.86233249549660   20.74785385999932    5.56540712912520
P        20.85933137399897   22.31846963628584    5.77316326845900
P        20.02795759833965   20.45413659581767    9.04586153320128
In       15.80421988081008   21.41262878936785   12.18822708645007
In       20.25180231699801   23.31957837956163   12.01103640267375
In       18.94751188094706   20.19845478616664   12.90566764419525
P        17.79554336916889   20.93596175540385   10.84046966964480
P        21.90118467344376   22.56823603637350   10.33993567739939
P        20.39607118414661   21.88574892911546   14.01916893407523
In       21.58542576700480   22.61141460818787   17.29069669547698
In       18.78509931797780   20.01580803397887   17.36222852774596
P        21.11485074333469   20.31245405906145   16.57892387381859
P        17.49625578026219    5.42445843268518    3.81911858766471
In       15.79006392426285    4.85832902198201    7.04908338543857
P        15.69721328678933    6.88695826019945    5.66500663622399
P        17.70699197706230    5.76001991938864    8.30260697694938
In       15.46527600373708    4.74974955079972   11.16920247207142
P        15.57328382009313    6.89685115879392    9.97445914816428
P        17.72118454158808    5.18394963467664   12.04931082576055
In       15.70022618440541    5.58974416277321   15.12900300944668
P        18.00192250799471    6.38720544428331   14.82122121089175
In       13.71795316896618    8.25121727236292    2.83733951215127
In       18.76894641530560   10.55916291158675    1.56077189911497
In       17.41252368455128    7.69217085211723    2.82798052857913
In       15.67883582111283   11.41267470486272    2.82992757852153
P        15.71236989455485    9.16322472762137    3.97292703804692
P        18.01768056665784   11.98691060439616    3.45870343157756
P        20.35707976382244   10.98794205468887   -0.29932593311582
P        19.30215102522998    9.14940383202785    3.54979910271179
In       14.37613551865325    8.47249548345769    7.07005338720863
In       19.39948143908465   11.06177430273582    6.54312818513062
In       17.96999786265833    8.15969812077454    7.66484320880508
In       16.26186951103214   11.70899091204521    7.82088292142482
P        16.04004980402104    9.37372594797761    8.70018028847585
P        18.57631045316395   12.17675317775865    8.61225394884171
P        20.85561860797999   11.71773325422532    4.62835855191459
P        20.07417559509040    9.36114978488064    8.23044021881282
In       14.00466956608338    8.21768470703978   11.40361474651243
In       19.90978808636539   11.06637413600904   11.53615354397397
In       17.97532972612522    7.65988269042043   11.82625765157257
In       16.38350043236612   11.09170106207956   12.38028792076059
P        15.95575911926569    8.68946558013752   12.84775032244969
P        18.45799550039513   12.19562603035012   13.21918405744047
P        21.29127501497418   12.04455812376009    9.69332432180789
P        19.61614542132197    9.07974566901334   13.02092140644333
In       14.56053564144345    9.12357866563230   16.83569734204658
In       19.80431107121493   10.71711439250431   16.56195367036705
In       18.07328800766895    7.77996685094251   16.90023746425062
In       16.79794785961271   11.99390883327167   16.07651482216096
P        16.70954995462668    9.52310935123283   15.74188643792337
P        18.35592509972533   12.13367259344643   17.99802883430155
P        21.16591778573252   11.58453540544355   14.67115939608932
P        20.13063251635525    8.68209860668040   17.93899871771573
In       17.77281758709660   14.07438373572046    2.11256427035395
In       22.67490341660859   16.59211452122056    0.44621746422395
In       20.32741474953495   13.46488024128431   -0.35808065989983
In       19.97028738069894   16.73768450848178    2.67024570009731
P        20.23807399887528   14.35986898248236    1.94063800090675
P        22.38665075117100   17.42811463969655    2.78693662096960
P        24.37679199247858   18.38810065494503    0.12097669101823
P        22.30948636869380   14.72292015686554   -1.15272367866120
In       18.54304536491690   14.42388117372335    7.50799201713000
In       24.04488666301658   17.27574890344972    5.98315547820104
In       21.67524252976253   14.04813178358342    5.10288179872271
In       20.76875381619897   16.89673402095162    6.45518750065914
P        21.03774326180534   14.61430609698422    7.43684206265137
P        22.09187262753134   18.72394352536522    5.35450950748329
P        24.70504615243938   18.13709301292306    8.21675386237214
P        23.66504117933553   15.40264866695409    4.37463679914205
In       18.58289755151564   14.31223677667227   11.89374894631482
In       23.34704745481866   18.18260102151800   10.95960871477988
In       21.68244069401531   14.35396905803591   10.62340552701341
In       20.73608372952576   17.17986193951478   12.68194744960024
P        20.83910601989590   14.70239631126513   12.94674861701201
P        22.79480170684569   18.41042815985563   13.36372366606080
P        25.24313115970732   19.80679027618054   10.61905502141842
P        23.28705534276914   16.01722819890367    9.66113570796262
In       18.17980222936171   14.58799826053086   17.70074576836087
In       23.63588499526846   16.99063936393095   16.35097277628921
In       21.65121107631192   13.63094670970141   16.05872099314070
In       20.25853018107593   16.87273766834136   16.94267466327987
P        19.52487153136342   14.88044067634086   15.60132480878164
P        22.29088221930384   16.61220110650284   18.37097362973736
P        26.02936551838029   17.74719379776907   16.21849726835435
P        23.43879798393863   14.95705707026042   14.89314435593420
In       21.52165259895475   19.57553055770608    1.82284839406110
In       24.87508041130545   19.82564608330891    2.08391201970320
In       23.10730096269864   23.00833675366329    1.99053798002178
P        23.00893735433278   20.95384811736934    3.33759554314237
P        26.80970756375582   20.38636497074856    3.53396246546496
In       21.99630578039019   19.88527591582245    7.58899797229965
In       26.72925568068927   23.22757708562602    6.46783168381880
In       25.53028605140659   20.21639650602685    7.12304366152783
In       23.08682032436057   22.98633782864323    6.57915421156809
P        23.78265565095169   21.44027586653478    8.43119511004778
P        24.92634147525152   22.31421728435811    5.05110473196418
P        27.36666187666215   21.55409645757507    8.18400310195186
In       22.44799097134161   20.85873406215879   13.06847957281806
In       27.21074006924424   24.87716824666089   10.70814564291773
In       25.70546317840261   21.61375090724998   12.29240818142793
In       23.66447951628199   24.12381563885755   11.15364017453104
P        23.83868133094193   22.90172814558106   13.29768442916649
P        25.55015809090833   23.37263262377443    9.70882097363718
P        27.39326929177857   23.41351822096238   12.65356097887559
In       21.99885915885412   19.09026458191994   18.58164753603818
In       25.42193514831179   23.69265645629003   16.67108288232924
In       24.91105592914105   19.95589597465610   15.88588783824728
In       25.00680169542395   21.49901981579910   20.11977958612710
P        24.13356451297179   20.31143178377492   18.19733445535452
P        26.50511544142622   21.83803297919649   15.51228833742426
In       22.63211352040575    4.49090082032483    2.36011761287127
In       19.10399390872651    4.21904791904032    2.39747539790983
P        19.97246456860725    1.98463662330574    2.02661601521946
P        20.80902073139802    5.29336345466479    3.86208569074353
P        24.94804969238376    5.37082884769372    2.23062516510872
P        21.82096669136390    5.05917669627738    0.15124164057028
In       23.08228560622049    4.96962964424514    6.30985593309552
In       22.42612708542434    1.62525380757860    6.72766913554500
In       19.60961220460000    4.83500963130349    6.99436706286551
P        20.51698807029447    2.85545998992191    5.83353216627315
P        21.56432783647897    5.99351397135380    8.00541339442604
P        24.29364668265367    6.96108958985801    5.39147650169483
P        24.04065069629266    3.18341520598062    7.78852382052986
In       23.33496333496655    5.25208764825567   11.71498822127516
In       22.05386059159040    1.68532340027822   11.02671623678138
In       19.91794110627058    4.48638058832628   11.13105891669919
P        21.69367495268139    3.65948808040398    9.59173386770621
P        21.16265532927369    5.88916343210535   12.73913825087975
P        24.48357130611834    6.95728205199721   13.09862140978435
P        23.65360638177998    2.89713953683890   12.44732439602690
In       23.36953496351572    4.95539066078623   17.57908809008782
In       19.43246757329625    4.58732948970687   15.74113042480011
P        20.97616078267352    5.56498765944816   17.36896884946283
P        25.70732777751699    5.76942872349914   17.78031350588406
P        23.50779511661675    4.15725777427482   15.29837711804686
In       20.81877896004537    7.42241036491276    2.58323713497366
In       24.73200689161913   11.28669523257560    2.93942195047824
In       24.58652298596939    7.68327526459104    1.43055521090156
In       22.12554019590224   10.22744757284733    1.27248026888153
P        22.95006799795334    8.63239368991161    3.02995594631022
P        22.57944655829943   12.45750983972381    2.33937935325274
P        26.94289191146794   12.21568281708998    3.66477720241871
P        25.66767417768718    9.89840418011225    1.11705349236642
In       21.54249161690336    8.09337279358956    6.68647651830176
In       25.62573278947045   11.67177008481329    7.97899757733840
In       25.37751190156318    9.16872184927407    5.80070536995149
In       22.80367773633570   11.17432630997792    6.10965792907007
P        23.58556402407188    9.26310853703348    7.52395902840909
P        23.45604947942812   13.00220150776806    7.68084001899774
P        27.66253205271910   12.37735367230609    9.23808084378958
P        27.26501457809983   10.74409950386819    6.27961523828816
In       21.46210179597842    8.11127389354426   11.65875690494610
In       25.82967590783448   12.03999443056653   12.94159558570218
In       24.87323065983909    8.55326121849943   11.23158059574164
In       23.47209882529672   11.59415137710028   10.81276981245313
P        23.11199454809400    9.79258628429105   12.49297837458702
P        23.56724875340802   13.16270946692603   12.76141999729000
P        27.48327817768180   13.63594823748158   11.90338547278236
P        26.64356223601392   10.29199429422833   11.37596793310972
In       21.51005030446592    7.65371506823507   16.13824690300426
In       26.38277489196877   10.86777028237605   17.02667571789581
In       25.20068314528601    7.69878521505020   16.31014118487460
In       23.32501202717483   10.79118274660485   15.63572721493180
P        23.30100715806037    8.93771257680012   17.28615255045485
P        24.26804427802709   12.10476287452287   17.51782439894203
P        27.95237248985846   12.35025524962873   18.27748262401878
P        27.18277325685423    9.00948792858968   15.52660262120040
In       23.67200462165903   13.14249790818994    0.18908853182110
In       27.82732744377418   15.34347370775209    3.80934048964021
In       27.05974216767241   13.13333180396370    1.33284006350253
In       25.97066071628378   16.62576986196078    0.84848493646988
P        25.03243901951800   14.51179467466351    1.75318194642342
P        26.14231712289087   17.12110604256186    3.29415350136451
P        29.06110933437603   16.83063596410477    5.28929941977726
P        28.88813304556731   14.79849211523605    1.63712620236959
In       24.98478786333259   13.98956779935723    5.95309307141315
In       30.65194995541636   17.75514427294611    9.10571806031344
In       28.24912885877174   13.98535196562943    7.39641366990332
In       26.81660614236537   17.00562394088513    8.93851903076821
P        26.00610976154120   14.83633538776430    8.06698192793048
P        28.42356336930395   18.78405369731193    9.54735619257394
P        31.75708554225145   19.74657506791906    8.07430987826976
P        29.99676810719134   15.49792911821989    8.30348502074736
In       24.64233646994302   15.11173059664987   11.56202975940037
In       29.77704207053850   18.45712974855451   12.63822624468719
In       27.19634810246313   15.10853302335500   13.87617286605273
In       26.50190330271925   18.46301565244784   12.34633729931396
P        25.23765137982365   16.62813964216009   13.48143002294781
P        28.03490211976692   19.86714867201322   13.77018397909885
P        31.83753770061420   19.51933522551011   13.56404079967727
P        29.31187965359912   16.37824949476556   13.90085598530981
In       25.12061080650430   14.27286157836792   16.65124542401250
In       29.47831715248617   17.63324745399490   18.07646274684678
In       27.47264001535031   14.68776159985124   19.00098767008373
In       26.07672324967452   17.88479779606557   18.68819367395607
P        25.13781123007052   15.56754006290391   18.78978524676641
P        28.00425736603901   19.42725437810660   18.93153898633983
P        30.66723703103940   18.47706677171541   16.12880503751532
P        28.34097847169500   15.73557737664717   16.90686010512861
In       28.08731747944091   18.52980436758653    2.54149203373766
P        28.68150657150144   18.61435363946634    0.18937269331440
In       28.64332376349850   19.64052258598058    7.19837831529868
In       31.11713771181732   21.74302370034159    6.74790940328321
P        29.27683392734506   21.06788264877364    5.28358699006818
In       29.15945560010240   21.68667756016022   12.46806673741983
In       32.54797078259622   20.66398889943726   11.50402026081990
P        30.36088529535343   20.97430388802644   10.42023910816825
In       28.19783648090731   21.09513893900507   17.15009366952675
In       27.41907577580711    5.47782828333832    2.26625459609210
P        28.41024128312996    3.50773392732895    3.29139745000701
P        27.32840162170296    7.33243074769735    3.88912721545310
In       26.25004959222670    2.89163314302489    6.74232879236350
In       29.19506029030771    5.79940890095657    8.42850118752317
In       25.65799831518921    6.31507571167207    7.41271931717576
P        26.81871814435212    5.00395982045574    5.64509579504672
P        27.25772425335380    7.15285256687922    9.14965157800128
P        29.63736940246535    7.06269699814131    6.40145426807436
In       25.94859989979925    2.54012643176691   11.65771387458252
In       30.19789748276481    5.49793830271857   12.72936857005239
In       26.69834253526923    5.89574629703049   12.77060213658285
P        26.51501340889841    4.67772790131541   10.62449605198797
P        28.63834823296585    7.02685011939115   13.91430908092199
P        31.47399981607953    7.25674169607328   11.64459494162328
In       30.03799600933545    4.63004256399121   18.53201968657329
In       27.07490097149357    4.37272465253356   16.29324027699037
P        29.20986166997251    5.60729407854903   16.45582548855381
In       27.67505731350482    9.32904741332322    2.47722931375207
In       31.17470385754912    8.75225782707579    3.03288965321712
In       29.42293378155414   12.12324475484212    3.48444922020669
P        29.34665411001557    9.76319971126739    4.33396801802258
P        31.27229032303477   13.46316762515733    4.40559159160560
In       28.04469457283150    9.32316122187650    8.19082867386035
In       33.16423208624711   11.72341632803228    7.72510379654865
In       31.33274593107084    8.66814599503825    7.21095908149236
In       30.12808018964996   12.00021539165106    9.19139893026930
P        30.28570817583388    9.52415241083535    9.27124481849894
P        32.29650748651158   13.20963396836855    9.51106787809866
P        31.42502246560129   10.91928004994284    6.19355931972223
In       28.48806320702308    8.81749077884807   12.16458447340956
In       33.11583643486089   12.59653767041181   13.21924256129110
In       31.75141181868442    9.21321825755379   13.09586139402443
In       29.22127780356641   12.37234956002866   13.20704433761335
P        29.61046683920569   10.05825256114632   14.02285201226174
P        31.11286006611049   13.72615359131133   14.13284161857750
P        32.07444748344303   11.12190372614315   11.55652296621173
In       28.41515672502941    7.80589178915601   17.33868600167362
In       32.89437544491440   11.74064870445424   18.81777827008348
In       32.21734620103473    8.12581891310162   16.91816925696507
In       29.79804060134843   11.20145814763549   17.07683551380174
P        30.37843080755267    9.05815257560844   18.18667425240121
P        31.90129180464351   12.51906653306879   16.72970716930767
In       31.10425062428023   15.21438179855563    2.67722164750281
P        31.81825438309495   17.54264186816133    2.72241553818000
In       32.39870275836510   15.06295915658087    7.84956075039393
In       32.95354685128930   18.50580763329959    6.31222216496350
P        32.31826498742521   16.23757236603526    5.68256633615059
In       30.51040967616024   15.11108520142601   12.12732578843864
In       33.19005076875959   17.45174795738619   13.47025867723742
P        32.81100552674333   15.84807183983619   11.69109664855537
In       30.45311518878569   14.46634930633953   17.27023875655537
