70
 energy: -4.685162504526 gnorm: 0.000755611523 xtb: 6.4.1 (afa7bdf)
P        10.10664531574947    8.19730975309647    7.83733173937944
In       10.33061505878976   11.93972535407803    2.92130380540597
In        8.28611318527108    9.90661197710763    0.58349175060533
In        6.84369404180963   12.37085645683626    2.97085910861034
P         7.74621263342931   10.08954496097476    2.95714802060672
P         8.73184222622860   13.31029492741018    4.25043132878322
P        12.33450630677036   12.96247038520168    3.91013355844201
P         9.41308755240698   12.08070262144556    0.65080020225226
In        6.43561421781143    8.80053299812004    6.54748356598615
In       11.01513857622870   11.92061939832470    8.99438069462309
In        9.93516360177163    9.83392598188028    6.05983778635874
In        7.73811058185325   11.78669578586995    8.09325034267699
P         7.64710551808797   10.81287291885433    5.81149783757327
P         9.05314743146278   13.43929073407645    9.40130158662482
P        12.89435580034672   13.49695111414394    9.10632025653155
P        11.53973917323991   11.60173250768301    6.61837439532098
In        9.95631191903360   12.30513294283228   13.81884652994035
In       10.75581530087181    9.30595968067210   11.55081691127050
In        7.21490452911138   10.24667492751984   12.27056113035988
P         8.55698947126803    9.25230871761323   10.50697587493170
P         8.07518671126505   12.54413648114353   12.22901554366092
P        10.50009050744779   14.54226023406105   14.66939279394853
P        11.68679193924584   11.42111798641024   12.32078417396512
In        9.48374061748747   15.21013393722956    2.86648574718815
In       14.59155061822555   17.29095978680195    1.67195923685973
In       12.76733622283351   14.34880835366626    1.91157627357776
In       11.33276865238577   17.09006126851206    0.32337097152746
P        10.61003994676536   14.76087192843162    0.71370635960073
P        12.85361737772143   18.90371988724486    0.97010846211845
P        15.71145856240425   18.59007110524594    3.44660791645532
P        13.23494851588766   16.23836707386100    3.47614339627067
In        9.90283461800672   14.53733671330622    7.34248544033505
In       15.83322793719194   17.54799712319272    6.59093246889363
In       13.59584468505242   14.95775537927974    7.23749115338561
In       11.47651241316495   17.53909467872354    6.92983889235986
P        11.62610508778454   15.34860244209670    5.74260562807864
P        13.55468905977939   18.16294543762025    5.68513688692326
P        16.66865509422893   19.77640330487515    5.86346735988721
P        14.64343689069934   16.76315706413368    8.60583320878560
In        7.86914590209849   14.99525742101952   12.18884735149174
In       13.80921541870647   17.98665668200132   12.05282932199668
In       11.64602105517913   14.98101817153198   12.54911317536857
In       10.34058253984665   18.04573055823341   11.92905385197685
P         9.87137689136490   15.80771448871736   10.99189202336942
P        12.12727402579939   19.31620330455294   10.81034444133727
P        15.70908275649511   18.72099030014953   10.64594585647743
P        13.20084353501388   15.90060220742425   10.86178950393807
In       11.82418868713330   19.82503372135109    2.98643225097376
In       17.12933257574365   24.29658091311986    2.92262616588944
In       15.33868880399790   21.00807314102611    3.03511401177316
In       13.03524197291551   23.56338621370029    3.67608535833980
P        13.26586317715303   21.22614392530430    4.39691058065326
P        14.80105071282513   24.42348074642886    2.25992141408025
P        16.98646479884227   22.31477307588954    4.32638583904282
In       13.77534112067025   19.90313313130622    7.46818515788059
In       18.35441557017454   24.98907149241588    6.75270295451061
In       17.45732774461966   20.71450246425493    8.00674968298553
In       14.92959863141705   23.38045429731188    7.68875776820642
P        15.23093665013789   21.27737190905638    8.92520757082602
P        15.94519739378054   25.05111733704792    6.20171801636926
P        18.87845122823088   26.61574880349269    8.46583778806049
P        18.77051780476334   22.72295198083651    7.55568754335109
In       12.72378818626562   21.51643147607617   11.68934889401953
In       19.04152319469627   23.83417070494815   11.20337154066588
In       16.56921714126929   20.28622494835216   12.33733673872740
In       15.57817686789297   24.04022475697899   12.28988212838207
P        14.76876821828897   21.83875816558256   12.98909307570728
P        17.04081927363216   25.10651649148034   10.67461315015123
P        18.59119177530545   21.52069501018489   11.73975470325809
In       15.23628266059668   27.15080860888580    7.19727380006153
