96
 energy: -7.107998050369 gnorm: 0.000755411582 xtb: 6.4.1 (afa7bdf)
P        17.52549212111908   14.57759065812906    1.31099557480851
In       17.79695433173486   17.93528595682880    0.85859769640140
In       16.76642122166864   15.84220983531553    3.26620815711647
In       14.73347297932882   19.42335094425085    2.13024390911513
P        14.70916429567517   17.10159061505804    2.82403403812680
P        15.98305997032537   19.43217489400904    0.01780553712661
P        19.29906621063725   19.77335362627937    0.08619301135890
P        18.16223384895372   17.90331668847737    3.33038970886483
In       16.62981456813049   21.57985535985712   -1.00045220450036
In       20.48428227004220   22.63677241955827    4.49208417537438
In       18.09339458157284   20.95401957068158    1.93090529289106
In       20.14504047509164   23.76652025955954    0.81238159316433
P        17.81596713895540   23.03265209875095    0.59618703437881
P        21.42611261365003   24.27883562491249    2.87394538750470
P        22.11148702353636   22.06868891436840    6.27851374394873
P        19.61075724260540   20.39734588084022    3.81728625858719
In       19.98662649738225   26.08402048233726    3.76789679338874
In       21.85130635475995   24.44816581208830    6.90631174946952
P        19.74895373509085   25.41708063378013    6.09558221960290
P        23.38331080759029   25.12065451952131    5.12656076557466
P        20.15819530140059    7.67676905178443    4.57207487470643
In       22.27224943495315   12.94713457902347    4.24235012249803
In       19.85120559191061    9.94478829464253    5.45274682260109
In       19.37208944763998   13.55980762722104    2.57965069262621
P        19.21300022501638   11.28666724918772    3.51561963196498
P        20.62247160071762   14.80326857480675    4.31944535919300
P        22.29300637506958   12.55804955021484    1.77530955316613
P        22.06384690166966   10.99901143693863    5.76875070963098
In       20.46527478853155   16.96736683034721    3.12403207151895
In       23.91082683630368   18.30367273328778    3.76437912701925
In       22.78548743026523   14.99983355346727    1.57521044231351
In       21.19808313140420   18.21791765667058   -0.32353984059083
P        20.66643838189504   16.08101704991979    0.81907459337285
P        22.85888286320377   18.47999287501041    1.51619724920510
P        26.11505621270869   19.31461838392473    3.11679159870791
P        23.69150643779305   15.82422973363066    3.72890464807669
In       21.52802307484996   20.47166346607614    2.21055565717023
In       27.66377373219148   22.39901409483404    2.58217915442635
In       25.06820920298646   20.69789125096679    1.33795848356779
In       23.77468368595229   21.63967133251065    4.48422400711314
P        23.27059919763222   22.27186047860083    2.12129012327997
P        26.23125919111676   21.96309884728257    4.56680605129048
P        29.01319087616363   24.47776226609512    2.45322382747595
P        26.68489154222379   22.30180532682775    0.31339227224623
In       25.60585667775830   24.36850226398776    4.37741585193896
In       27.16801252993622   25.93633893553493    1.67559618755864
P        25.25134276011292   24.38747851602685    1.91804719264825
P        28.10830764423421   26.69944528213270   -0.45992872739937
In       22.94643919438758    8.96510898011382    0.13387062496450
In       20.31537104260455    7.65947902344458    2.14223355470811
P        21.38203401500616    9.87725037851360    1.83744356082695
P        24.35513649406094    6.95870411934565    0.32850351337301
In       22.78071651626102    9.56503305222729    3.87364183412173
In       27.03059338872151   12.14647193282353   -0.36845926573709
In       25.79508899245709    8.18487421497585    1.93923832503868
In       24.56287214338230   11.51907932107610    1.88276493161175
P        25.24516953650764    9.89251631552378    3.65053660921905
P        25.78168246192306   13.59223041153507    1.22566999848067
P        29.23410184882022   12.44408329762352    0.73496738431256
P        26.62860588840228    9.75318203949750    0.18257209516683
In       25.67605849400387   14.33635337855826    3.59674879297424
In       29.61515201067190   18.24602558036481    1.22332312958259
In       29.19066082775657   14.90101216514759    1.17524429056754
In       26.25669716537488   17.26006184244643    1.70493387024112
P        27.69202684107945   15.67433332365235    2.98619395549947
P        27.57262918169584   18.17426688446801   -0.18685910593196
P        29.75472458080112   19.24571371327486    3.48130578072097
P        31.14860462241460   16.34690676925815    1.77300517291638
In       28.01221202094536   20.53395419178834   -0.81192528632785
In       33.17116828891551   23.92648695282335    1.44123842242497
In       30.65440676030464   21.46662676088119    2.76841256449863
In       29.69530953577240   23.82593298764969    0.15816227101797
P        30.03380400323776   21.37063532496024    0.36703853460752
P        31.78945861190942   25.12188688676326   -0.18455903069242
P        33.10425654998149   21.71009982102385    2.49496951832109
In       30.46304337649894   27.18478641439336   -0.10367535273947
In       28.67682992708111    5.97727321344204    2.85274806224682
In       26.44208605691725    6.45343217777816   -0.87500999188462
P        28.39946846775768    6.83110710505131    0.56750932433800
P        30.56712469054457    7.26008906601006    3.66981176672915
In       28.78617859928411    9.18536525500131    1.29761679477960
In       31.69544733548693   13.23438285942978    2.81889945287562
In       30.65409606278341    9.68500907896759    4.02217210728758
In       28.20650696406122   12.21066480179178    2.98164503971555
P        28.19369697956555    9.80895168277971    3.65068651733872
P        29.71726103572734   13.72500728037785    4.24751691968420
P        33.58441210305109   14.75053097029923    3.29200974096272
P        31.78895029462957   10.85609270208807    2.20179980561986
In       30.57338292611113   16.06240186264892    4.18457115845825
In       35.69123253254437   18.74190468154016    2.80580415697127
In       34.08579241911167   16.19603860649196    5.20702756371529
In       32.15531161438140   18.83006598816501    4.06333524075052
P        31.94134169122159   17.19022241536830    5.92532687425478
P        33.47641037107589   17.79457143743513    2.21769308476239
P        35.35328475050180   18.29678708740555    5.17119675261443
In       33.09153319994481   19.86068238973256    0.87111075540138
