24
 energy: -1.406897640662 gnorm: 0.000466047451 xtb: 6.4.1 (afa7bdf)
In        0.08414329572979    0.18986306424548   10.39039057987701
In        3.64636904716969    1.68596116327114   11.04651824127896
In        3.66098761503351    6.11182896194789   11.06780911190979
In        0.80707790318710    4.17488343008968    9.78460189650192
P         1.63556071406828    1.88257925924520    9.62778414538604
P         1.38199830678059    6.46291055825624   10.32912957845930
P         3.79398099182464    3.90938891631477   12.07396181814487
P         3.39678986554480   -0.20584040242729   12.54494031402316
In        0.09611546515778    0.83742131890307   14.82164616192546
In        3.51309705860491    2.48639002780838   15.31037497702530
In        3.45098727164745    6.14102669433318   15.65353460310428
In        0.39825701336706    4.44778910356862   14.11912152191091
P         1.63506999071956    2.35476735349479   13.68113187733169
P         1.42053273009979    6.62422579392523   14.42259272572256
P         2.61397856332212    4.18392511265285   16.86483894577226
P         3.68340854681895    0.29940912559936   16.35883751689849
In        0.80116962460054    0.00936313535913   19.53456538884709
In        3.70549751561027    2.37530668234963   19.64283063371995
In        2.96879674672621    6.05147464784573   20.53278181711133
In        0.17187983341787    3.72402958178187   19.44224139871839
P         1.59636644093572    2.00484225973075   18.37455605296452
P         1.11188724785395    5.92512411662921   18.97912958030245
P         3.28918152473122    3.86999116289755   21.52748635827269
P         4.74743668705134    0.27005893218049   20.23039475479231
