346
 energy: -25.812354486996 gnorm: 0.000117914796 xtb: 6.4.1 (afa7bdf)
P        14.94621232751142   13.36514876134489    4.45485319847789
In       12.70674912264372   12.75077461044290    7.75090921818640
P        12.78400760348911   14.51162797763773    5.96943293484258
P        14.14865565823611   13.60020441978537    9.61860929665484
P        13.27076762051801   10.37357736836278    8.15900199996257
In       12.37924292986473   13.03607904934339   12.84042993857592
P        12.25209856719079   14.90079200709696   11.19242975995799
P        14.09311828882155   13.34749696400666   14.63357343192854
P        12.96641222898299   11.17430355883091   11.34953356202313
In       12.92487991913118   13.00364058982318   17.93957759793990
P        12.41516710602495   14.82891613503414   16.33435166283131
P        14.76101878520466   13.82013185131298   19.42278313041430
P        13.51417733546729   10.63239768947117   17.64631160573195
In       11.01190217804265   12.68820926710124   21.51662177914550
P        12.88210103935762   12.39092829336963   23.02771597575181
In       16.78883573878663   17.43501955010731    1.25115666636360
In       14.66117467352784   15.07846872557296    2.68582645843436
In       13.06995309174834   18.29605046355644    2.03994251231963
P        12.99725148024487   16.55961065239680    3.74802339106559
P        14.72455078822193   18.36077638989398    0.24401832319969
P        17.44465820769439   18.79211796683137    3.24182381377607
P        16.95337011993574   14.97573053794118    1.68357795138599
In       11.09847711649977   15.81327797173058    7.21229801449403
In       16.24379564345411   17.26093535594416    5.87528736748462
In       14.77095200610662   15.55871792782465    8.20332379664045
In       13.14205942621134   19.08210794069257    6.62943195962358
P        12.88087013252645   17.19766095507419    8.19710497767205
P        14.95313894977267   19.18181250166967    4.96265784340054
P        17.24532612458689   18.50955123871770    7.77281305496870
P        16.68429954629346   14.93626902377118    6.70181257727250
In       10.68043955674780   16.11465475848225   12.62435218502955
In       15.84487127197227   17.15373257043291   10.94728334922080
In       14.50585468702716   15.53387690272377   13.48490491827886
In       12.86615911048070   19.02659641971822   11.91911643425967
P        12.65315039991497   17.22861216039584   13.60943861669994
P        14.53284288209902   19.08239002086199   10.11075142986052
P        16.97736595932640   18.30915171080017   12.83224470817914
P        16.08178811821802   14.74901875943929   11.67690833666198
In       11.00921255184547   16.14461108987598   17.84544063490330
In       16.61723687752933   17.40453933288294   15.97693715941653
In       14.83615353227472   16.02140271044970   18.29307092573671
In       13.04489346225801   19.10301213667992   16.79214960142894
P        12.89004474563469   17.51402859513992   18.66684867297086
P        14.77666344937023   18.81609896684453   15.05043572863346
P        18.21019589991175   19.22978120311371   15.38870746451060
P        17.20768088265034   16.77086468365509   18.31029273257123
In       15.64151038093934   17.72115218131818   21.81171386642755
In       13.93026882616709   14.63160360647973   23.16948418903446
In       11.99140241817296   17.52949631344163   22.32656548938930
P        13.19214868022669   15.76783794040130   21.09435444773342
P        13.75298201331066   19.24438454655516   22.32737922252733
P        17.39584237495246   18.83824029542353   20.42955326756212
P        15.86693959471567   16.10145218041362   23.67294459318418
In       15.87023078618453   19.86054508041652   -1.31512444411431
In       19.17384978854040   24.45362519662746    3.17251874313165
In       17.24129600138033   20.94996612048872    2.00841532064754
In       18.84756856117502   22.89721223294331   -0.86621988911587
P        17.97917503135748   20.65936686428570   -0.33338476788364
P        19.49818909015638   24.57199400452651    0.75668343690797
P        21.33238054823926   25.07067841802324    4.18457196454032
P        18.85669558425765   22.02644260857925    3.56931983002080
In       14.99790956674540   21.62524570579953    4.54212847635583
In       19.08253690191293   23.94156827138983    8.09352266775825
In       17.18287191579122   20.87500140474369    6.98354773129767
In       15.53536182816966   24.06626346282600    7.23128936633253
P        16.89671851600209   22.89697453870054    5.53213984335441
P        17.04310752355462   25.16373906847867    8.87388697125834
P        20.86962215111061   25.23128533381122    9.25021637228212
P        18.76372075021780   21.57719278643896    8.77840579228998
In       14.85457317149209   21.47673246393546    9.62733071325007
In       18.81641196863483   23.90420024140561   12.84443115179291
In       17.03516666845006   20.71941933980864   12.09996337714792
In       15.33842306095326   23.96693857304484   12.20400126671095
P        16.78919543510631   22.72378084994707   10.60310973681251
P        16.83342428891539   25.03138556443036   13.88136222194422
P        20.75968262555542   25.00460003571927   13.95341419589331
P        18.59378220458944   21.63835708187296   13.85098170786472
In       14.85088435338781   21.25598449955474   14.56761188660960
In       18.85396436794972   23.51851835266737   17.89142821009860
In       16.96391306071341   20.59773935519475   17.06634026040019
In       15.06605012309947   23.78087706798706   17.22794540515822
P        16.62607276298794   22.65563109137193   15.65457349228773
P        16.81899387385644   24.74651610614497   18.66997947959866
P        20.84152902282790   24.61372655642117   18.91171322363589
P        18.49784349410190   21.26209471711369   18.91774174382783
In       13.92110122412348   20.77528858844957   20.42643662931268
In       18.93154786946637   23.82038103775331   23.77243707496950
In       17.30598548782577   20.79766804561416   21.97890053613985
In       15.65948452825113   24.02760735322560   22.00162621479666
P        15.94715170609925   22.17079205435455   20.39038412949394
P        18.04588020877257   24.27536355863061   21.52817698612546
P        20.88306272923772   25.31652282883805   23.47689383061330
P        18.64340462939073   21.37085683583722   23.97839528091469
In       17.53885640758633   27.15711268480771    7.48435860672978
In       21.26510166190602   26.99094008697115    7.52630134418163
P        19.36634970338233   26.38282792860779    6.04083058720535
P        23.64213819742119   27.23984590965226    8.18457846722412
In       17.02681787792362   27.05668393115759   12.46583348712649
In       20.50987125966536   27.10844301518594   12.64017708778003
P        18.83696495870818   26.36619558441158   10.94146680900042
P        22.34003772236056   27.36135684108549   11.01375667799100
In       17.34525202145631   26.86403206022647   17.52593439951046
In       20.94723537554976   26.49744431278199   17.29325975479250
P        18.95874319142077   26.03811322413467   15.87233626906446
P        22.94252970355856   26.26589640796553   15.87396095481484
In       20.39295350583034   27.21837067519498   22.06114080596814
In       14.62190442179034    6.19819686287359    6.75905423757301
P        14.40051560687242    7.77300664248604    4.93875094064255
P        16.88241329920763    6.77450998246638    7.51607418238962
In       15.76889010353720    5.78691356596995   11.77970510776148
P        15.01628487676803    7.41378295340608   10.14901302069086
P        17.92040730699535    6.54353916566318   12.69449715068708
In       17.04835483900767    6.10469896751755   16.76014195216825
P        16.32972680628387    7.72789763549857   15.07414949319884
P        17.92998538094209    7.60311770887086   18.52904909430454
In       19.85707369528516   12.14312368623101    3.14394816913107
In       16.88496963482066    9.04621099275669    2.33449757593746
In       16.77571435038892   12.26345974777992    3.22080179768527
P        17.33778004612766   11.12458518998306    1.10971555451766
P        18.41128809051110   13.29579887268545    4.81301979255492
P        19.61359686008425   13.56770546494965    1.07937510854767
P        18.87579321386558    9.87082640009673    3.57258738248689
In       13.79314357398208    9.98059474242526    5.79770989060898
In       19.26341722569952   12.10148151805120    8.25742382444031
In       16.75606132593322    9.24858033480714    7.56013906000221
In       15.96597543809256   12.38012099243014    8.42230085698717
P        15.92214141537597   11.18710521472983    6.23566451066379
P        17.79032109535536   13.41132156250523    9.79705527684096
P        21.41486314121596   13.31729182893437    8.36240872489831
P        18.56865585243909    9.87602132354504    9.15121206688474
In       14.83094756164970    9.58456562554542   11.27050579660391
In       19.39121971729184   11.98673675772815   13.58805969073954
In       18.07010361150807    8.97924202535243   12.23257266165415
In       15.77675567386592   12.08024636532133   13.30098532331220
P        16.90130612826744   10.99866707223386   11.35254624383693
P        17.52379401095520   13.21571055211798   14.68919602633243
P        21.51657944525134   13.27125009072794   13.68429710944061
P        19.52262308690886    9.56747309179408   14.15363572065442
In       15.17331530209699    8.96997674516792   16.88073154187873
In       20.59011866516868   12.22780482533873   17.33884154544203
In       18.44204105721149    9.64469430169505   17.19535392230711
In       16.37958649659375   12.49678035987523   18.03745190545401
P        16.56308182205374   10.91158655604209   16.12396347187457
P        18.71241980479178   12.78314848519452   18.89539642967654
P        21.81639132661525   13.67945454531771   18.95826026216028
P        20.63533173118628    9.93426472524770   18.39322025352574
In       18.68708545106052   11.38307512645543   22.35815004431666
In       16.77266591994601    8.62363785241707   22.03989025007832
In       14.74236419716765   11.37489414274915   21.75025587932042
P        15.29547284397830    9.47688978856602   20.28278628872917
P        16.82536644705640   12.64968922706310   21.27261742960499
P        20.60225700150525   12.70042409318877   23.19050051712286
P        18.61991026391305    9.54595991533512   20.64943077211192
In       18.56444545968562   15.41402176878462    3.52822497200598
In       22.93486497915020   18.86501261042748    0.89604833654501
In       20.71920381359001   15.77304801998106    0.65977868236046
In       19.77452791606818   18.50148154858030    2.39758250356144
P        20.83861109091552   16.34561583373239    3.06043948124252
P        20.63728640445884   19.65903233137402    0.37897122566958
P        23.63524368210347   18.70784677595659    3.26636604730470
P        22.87623655450635   16.64809329491533   -0.21099476040413
In       18.29852659383221   15.49286058471212    8.52424488010171
In       22.69717215351862   17.91174445914172    6.21608402338272
In       21.08277672475785   14.95273027082572    6.53134788178877
In       19.34777916397172   18.02597951312232    6.50430550731529
P        20.49516390977542   16.66844645749749    8.23770654698273
P        20.95950377763708   19.49388577201902    5.28054778730697
P        23.84207806257812   18.44918439720487    8.36642811963837
P        23.14616328067890   15.60574654401305    5.29708593678652
In       17.96837426574631   15.21665258278122   13.28645763669489
In       22.26732015922034   17.77486727253404   11.03021360030626
In       21.07155354215258   14.70996359083291   11.70353688996681
In       18.95583902027328   17.84251246235205   11.33663059586995
P        20.10508459718808   16.52954650732090   13.10729464982065
P        20.55895294646468   19.42780695891260   10.24218431093677
P        23.20110421054889   18.59896823568982   13.16979760312347
P        22.81330482620703   15.51450058299572   10.10765499227077
In       18.85510839797723   15.00928795884076   17.71013773082903
In       23.72917344357628   17.93429852729931   16.12231775090585
In       22.06115682956109   15.48393444807640   17.27873278568204
In       20.19490624066465   17.87676619861842   16.04476671765640
P        20.36367989378234   16.95516092837596   18.35540786042850
P        21.92753714645437   19.66719584163697   15.86879912624731
P        24.63069652461935   17.29032252931369   18.35411734304984
P        22.86716424725780   15.84764811408974   14.96332134555709
In       17.54375307357933   14.64617387484097   22.58228190794875
In       22.71483148521439   18.04901717241655   21.91250237800049
In       20.90961470388456   14.95726263956659   22.20420279249107
In       19.10571946123780   17.85758462021708   21.98595149512827
P        18.95708463332789   15.66313520392429   20.78812257990304
P        20.81010986989774   19.37746742063515   20.97252288618111
P        24.68060794574784   18.97446427418394   23.09701072294176
P        22.57366356289796   15.93527944928121   20.59265878648834
In       20.67558208086032   21.62312170979164    1.91583330439422
In       26.83055925615160   24.43692800464294    2.16873346432169
In       24.47880573645543   20.86078131056015    4.17745589478282
In       22.99716579311113   23.93175065126817    2.74113597956567
P        22.22357545220306   21.83796741053787    3.85884659059363
P        24.78908267599290   25.62939595512082    2.73462576583034
P        26.24500159477261   22.45683546185421    3.50972160241904
In       20.58989575349916   21.10606092368773    7.13002850990762
In       25.89827536981047   24.20738200283194    7.18120593848220
In       24.07451294669530   20.87817008163284    7.88706600117725
In       22.63746355285491   23.97373202032063    7.98343366221781
P        22.04322025455820   21.77737923119088    9.02055439519554
P        23.80760712302851   24.58477618555235    5.86510185776317
P        28.05121998223177   25.17146982567619    7.95452215921684
P        25.96523264124254   22.26646394393908    8.71907106301573
In       20.37995683356390   20.82374070868521   12.29667217780118
In       26.15113521943933   23.52836262022771   12.25364604467562
In       23.74572665833879   20.79151324535377   12.10429800168441
In       22.21650032402292   23.94240762909818   12.22237727495194
P        22.14193279686799   21.91565041879711   13.66654684020387
P        24.24680706288964   24.23605820440578   10.83056937888007
P        28.29209479422415   24.52199424581943   13.05425503730510
P        25.74086718139449   21.38978713757170   13.48424059014165
In       20.63459578712674   20.43878847159286   17.86757731443793
In       25.42585768162701   22.89940781489682   17.81625885706234
In       24.26683511559856   19.70828830575928   18.91258816512941
In       22.30560318296737   23.16169677329251   17.51263922108781
P        22.47138596335348   21.38594705809752   19.25952805783565
P        23.98581689306662   22.42343223114899   15.81623877927496
P        26.12482857348111   24.94560437478140   19.06479802114852
P        26.48429693397985   20.78082614016057   18.57510067152432
In       20.85113611312573   20.66301701694446   23.11383571360493
In       25.05449050129394   25.17341527768025   22.31605637011410
In       24.88280255500597   21.43094895976495   22.95203164045897
In       21.81931923740413   23.64237542222558   21.90300924622373
P        22.67902752529044   22.21709694595733   23.73259693010596
P        23.26300980302434   25.19742172001358   20.64381395534754
P        25.65941669998610   23.03166559443972   21.20766479058039
In       24.45160440668095   26.99304966691089    5.88755933390606
In       28.17063634616416   27.38415055814479    6.90380854211933
P        26.74576585684177   26.72627183848439    5.05386597249244
In       24.53540985713816   26.53333248846640   11.75477233557256
In       28.29514052584834   26.71802549192944   11.92244230543160
P        26.49147315971825   26.81110727452279   10.29496788061237
In       24.70261228691175   24.72616988739189   15.13898727107238
In       26.13200050801298   26.78544158774579   17.41013116508764
P        26.98000215501992   25.66487525799940   15.40806189115233
P        20.68974768066621    6.64608115160417    2.33316634544203
In       22.10685441800114    6.17882074720027    6.17805708367380
In       18.29790056009002    6.44719259611648    5.53901567470458
P        20.39691843507266    7.74362599804026    5.30205855472405
P        24.17533224805530    7.45207996188458    5.96539358761554
In       23.32733595920145    6.18833943911848   10.99505295114667
In       19.39190225017920    5.85276646527396   10.84150930467311
P        21.24810272446247    7.45723697369803   10.56523954136252
P        25.49533109159889    7.24672976519678   11.33646988481442
In       23.43438133278614    5.90893858620761   16.73961325611557
In       20.13988569955088    6.70762737315173   17.79976983697256
P        21.54525533377855    7.18646000377264   15.81850929194626
P        23.98355551733337    7.57429034318195   18.42858823650090
In       20.14575294465713    8.91810214191643    1.63258860325424
In       24.61281643299206   12.30883894852999    2.74603068892846
In       22.30750858871255   10.10381014485164    3.99318414815651
In       21.94363787721460   12.68733971153223    0.71802774585769
P        22.16719160062765   10.35855628968454    1.54044249777659
P        22.67603041421163   13.91101911943245    2.78758383350524
P        26.38267912184540   13.00980829613079    1.18465834233976
P        24.73570567974991   10.30289763478612    4.17718298982481
In       20.18497038649809    8.90188565141901    7.50828726352260
In       26.45059315512023   11.22502108069647    7.42704603257487
In       24.21156686369331    8.53172020901105    8.15728557654431
In       22.81611087499278   11.58981482098405    7.26910936532432
P        22.14390021179009    9.73647402291110    8.78076237247530
P        24.71373495385890   12.65593477846422    8.45852457249009
P        26.58845441587004   12.74968290028906    5.50454717688920
P        26.18479879369849    9.53844707006442    9.19760392859395
In       21.34816026125173    8.52626581227551   12.81071658583437
In       26.10188594337723   11.35518093851332   12.17327409719665
In       25.58030051586082    8.17238647923333   13.59628183539221
In       22.70346339248187   11.62933866741410   12.21577902944729
P        23.54382605894646    9.56768984229437   13.34582261280046
P        24.53828554239665   12.96063102808056   13.27028502954487
P        27.49569790558895   12.44568135114312   10.45843311652241
P        26.79403094343993   10.20571544091098   14.24191435313193
In       22.11092681061525    9.53434204446478   16.41815026489220
In       27.34593057800285   12.41340509610527   17.45436968009395
In       25.21473632842783    9.52350847055527   17.53642678338130
In       23.97807007311473   12.68422937789827   18.16097263168812
P        23.94210542331826   11.19848659047594   16.17110350010141
P        25.88456335472981   14.31674970219779   18.07632138298066
P        27.90649605917616   12.80211132637320   15.08745556117212
P        26.33093599845121   10.98242875589544   19.18805050920310
In       20.86721332563441    8.72279635488246   21.35715705727802
In       26.58190871541375   12.40614244287373   22.96451394148145
In       24.75465020567646    9.16864708608406   21.96027604039378
In       22.40001667920274   11.81441686426615   21.72942276837264
P        22.92860905866818    9.75415125671475   20.40596565565135
P        24.15404594301614   12.83547860121153   23.15167072730383
P        27.48312688170996   13.29618085818304   20.85566382062333
P        26.78490101058589    9.96119707333432   23.01919131592654
In       24.17712519174328   15.42330057127577    1.50286361123417
In       29.80851402131384   18.08025398502943    2.32730537598059
In       27.61226968211464   14.97524012885999    2.01287415843495
In       25.90368062324731   17.98554837952496    2.54932323212551
P        25.71417167520910   15.65564677520068    3.46757001187315
P        27.91412624307343   19.03188642094074    3.59001889439653
P        28.48451773577159   16.85277308324883    0.69694971037154
In       24.53480161354352   14.78897221557590    7.19783922766129
In       29.67121754143932   17.51877965334737    6.80744360984622
In       27.83738653670020   14.55554127318155    6.63408209892840
In       26.08248672328222   17.80921998821846    7.46784606682624
P        26.52350245865948   15.57516335715541    8.47683476471193
P        28.20361853855389   18.90365204043150    8.26562722250840
P        31.43230129833949   18.97559126563561    7.72039338761313
P        27.96451561117625   16.61978864179809    5.25140047950801
In       24.72670785596261   14.46121067725074   11.29407821215661
In       28.81350739966096   17.77590268314809   12.00022827493923
In       28.51525589893503   14.51023874459926   11.30772637608360
In       25.39758289403850   17.54705349608911   12.63037169415634
P        26.61014056540060   15.35504717894310   12.65093093214241
P        26.72681527651989   18.21295542978173   10.65101668163244
P        29.87681664752637   19.60446657243655   13.30937177473858
P        29.58820413045452   16.37816516902104   10.11254241534750
In       25.00097600881429   14.86914705714178   15.84118068889568
In       30.35657339332574   17.63640703102984   17.15734777930077
In       28.75654994790864   15.02308229781550   15.73983439879670
In       26.98851014195225   17.66704037239309   17.54389381414653
P        26.79207508636311   16.50595725717220   15.33555575908488
P        28.54187590707506   18.72984248359698   15.84078559772515
P        30.09179059949534   19.41184284907530   18.84886289260058
P        29.44976433520949   15.51407602403231   18.04831594683504
In       24.47378940948950   14.93323918881088   21.87797875445479
In       29.22006137479671   18.59788336452182   22.75880920756660
In       28.52418918183923   15.19136889639377   22.04225796846827
In       26.19537481724318   17.98147694998866   21.39663954262796
P        26.40347542793817   16.05999583674217   22.95380297348649
P        27.86385038169681   19.80983953889643   21.07728733047740
P        29.34794858228793   17.14362081083577   20.75990802148766
In       27.70402487517076   21.01660540510278    2.08250533152059
P        29.89671531488058   22.08683285253504    2.15633362773732
In       27.39402654252144   20.97325312499870    7.14276612048546
In       30.74815131149349   20.76864633235226    6.21524444535508
In       29.17289755634396   23.84977439364171    6.19245584490867
P        28.69075149941230   21.64324881578992    5.12066668101986
In       27.13688099423343   20.48006801892562   11.62313332692814
In       30.90153150141134   20.34916864036676   11.20986081666776
In       29.50904568110676   23.43079527031671   11.20791646399090
P        28.91475834637941   21.31513382853396   10.08493090604300
In       27.36211001664289   20.87959982738579   16.24996711621086
In       30.47742634146559   21.26686912381878   17.31125415715241
In       28.41867889457781   24.45742551472830   18.23026200442539
P        28.84607858964816   22.87345480277055   16.39957815424752
In       27.99178108429462   22.24041286693778   21.50804444507736
