34
 energy: -1.877184352674 gnorm: 0.000975522972 xtb: 6.4.1 (afa7bdf)
P         4.01815112235922    2.58235303866766    3.48546327330906
P         9.82841959496158    4.19265801993802    7.28162764238001
In        5.98955067927239    4.70106832246133    6.56630958152706
In        4.67891002131823    1.17219979089065    7.01635118913553
In        2.59300238933922    4.29820851257242    7.04329207901508
P         4.11094245098347    3.03334029093850    8.52487058841338
P         3.95385537693526    5.54651665324757    5.41270235834260
P         6.01383183455238    6.43760684806754    8.36505550479877
P         6.78442425340738    2.40898154294358    7.03228169724954
In        6.27247790243346    4.18000136158194   10.80140651530575
In        5.68461822137480    1.34547400896221   12.79349493082344
In        2.76702254650775    3.99089510732147   12.00553540591679
P         4.31071080201325    3.13915615710522   13.68259203903198
P         4.06796289540346    5.26263834497439   10.32530455160807
P         6.38563602738531    5.37442659808052   12.93501621145386
P         6.17378634817468    1.74241158180156   10.44726701975003
In        7.11210802787583    2.98676056585746   16.78062192179515
P         5.85026361922089    7.02991351293796    3.02384628120776
In        3.91340698730524    7.87853530195571    6.19859011882209
In       10.06394462260844   10.10649337297230    7.82381169063478
In        7.64668209767216    7.49180815362702    6.79920487809778
In        6.39557045666642   10.65534647463009    7.73645528090295
P         6.01767611858622    9.10945602645789    5.86741327760687
P         8.07744501731440    9.56796293834555    9.16949799610297
P        10.01438462109889    7.69931800938352    7.44138757635359
In        3.95876473375296    7.33938320714546   11.67822941888154
In        9.95001059718538    9.82035338572409   12.72043209890294
In        7.66543035174887    7.21067867317053   11.90289586284661
In        5.92715833206681   10.28340765148742   12.29310486991797
P         5.90511803597408    8.45031416234892   10.61980739226233
P         7.79377071730432    9.98803505954704   13.81784685623571
P         9.90330877722085    7.94682507806562   11.17448241447807
In        4.97949961684577    7.39666626449717   16.15324439856104
In       10.00691085051543    6.33612575849723   15.54559707849438
