54
 energy: -3.903645526713 gnorm: 0.019864364239 xtb: 6.4.1 (afa7bdf)
In       12.84638119614252   11.15324643149726    2.50075155786500
P        11.36720071874241   13.05969106393395    2.10087367304534
P        14.54391238099887   12.77235396534647    3.29103661369842
P        14.56997112707746    9.51173714919197    1.87826216054228
In       11.75283099954295   15.41672381121664    1.86235156703451
In       14.37959368505696   17.36718131766048    3.29923613362959
In       14.50509473607002   13.68099432259665    0.96270003682732
In       14.20758891740527   17.42174305762015   -0.53604750793646
P        13.05125298924723   15.28808644882458   -0.19586355161785
P        13.48793775133568   18.65442529270477    1.41713438589644
P        16.38376701887724   18.71760001249499    3.80689034646426
P        15.59677054055797   15.59158723857175    2.13540569073362
In       14.02634000323063   20.97375070377461    1.98057913501674
In       16.84475160150967   18.94068468143948    1.38507500151269
P        16.19700577554988   21.27863906950065    1.01899693685800
P        19.19607018388037   18.27676766948456    1.76895978186424
In       15.55321421399725    6.22242008551002    3.14314427088848
P        17.04485751039718    7.42938851928512    4.66127401370268
P        16.61959044563415    7.54412788430218    1.34552853348771
In       16.02750393298771    9.52166537411015    3.85581472225150
In       19.96963947505357   12.19091072417498    0.91306850554096
In       18.13848589502108    9.50571955218968    1.13166413715999
In       17.01892864137177   12.79028698310813    3.10043137966078
P        18.20799047647303   10.61913390755595    3.35162149108384
P        17.60350206826832   12.89480549471555    0.69289001798936
P        21.13087700482015   12.18571956040667    3.11289988132870
P        20.62676956680032    9.77174761583132    0.91314414165497
In       17.82110222579223   15.33331169918919    1.09099390143553
In       21.75444839647899   16.89214725879636    5.01345966790911
In       19.88186178066891   13.69804223277412    4.60334113051128
In       17.88467241691099   16.89953644372034    4.56634174367309
P        19.34262060124289   15.56988090514203    3.06425247603676
P        19.71725251536247   18.09232608847385    5.73213587750548
P        21.88479629900063   17.06975289566950    2.55206758065837
P        22.13782800725337   14.45922472012308    5.31065380808823
In       20.00364802923607   19.52159474475647    3.73513108691555
In       23.87905290322553   18.49830279443431    2.36912606231633
P        22.39251627660555   20.03719756234562    3.52942782637469
In       21.71894576019591    5.45955754296785    2.52970067332491
In       18.48915137781728    5.93276293356082    1.24251690006836
P        19.60213056926388    6.42633378093611    3.37460638191093
P        21.91387991609484    6.94161914227208    0.59937400727906
In       20.73958611877984    8.64781669543732    3.14717220854418
In       25.60256858866124   11.58126203829350    2.06812653686367
In       23.70662395470931    8.28754098264475    1.64217817527395
In       22.81659809224602   11.06938492619506    4.55156808674356
P        23.08609077184147    8.65907192344155    3.99863598101107
P        24.96955180004581   12.27894234470343    4.34662713073297
P        26.53321403960091   13.72943446991174    1.35875497796402
P        23.40326285139926   10.72452860978940    1.35500926558618
In       23.66947762321750   14.14394665585910    3.36734103061751
In       24.88804186197678   14.20569486165774   -0.34386804206600
In       21.85740979151716   15.73555360692743    0.46949436418685
P        22.93269582558277   13.57601186275751    1.04206810436008
