240
 energy: -17.259536987651 gnorm: 0.000101240574 xtb: 6.4.1 (afa7bdf)
In       14.04822878937626   12.42917982012963    3.01008372299039
P        12.75547613137961   13.90569428285120    1.51470628469252
P        14.99475965162494   13.02216526829566    5.23943151436202
P        12.82835510669945   10.68972455907815    4.30304655115525
In       13.06030928965840   11.60102311702784    7.74140520193155
In       10.05051411185155    8.75191640350470    9.16226743140849
In        9.54249881343712   10.89091401636682    5.84598294560054
P        11.33159096402873   12.52455993062116    6.18179766667523
P        14.13858589298351   12.62522357403770    9.74567231433430
P        12.13713530194480    9.97627148413401    9.38238850855644
In       12.73339759071152   12.02220564213697   12.85821558142502
In       10.52748020974149    8.94023367668568   13.66330793466929
In        9.01302883633673   12.02515154094459   11.43197234114636
P        11.32502507821710   12.64379395900935   10.87575821297219
P        14.74861843248986   13.18350426976001   13.80643321995433
P        12.80414287298853    9.78386958954550   13.95390144091864
In       11.83295102169613   11.04056214213436   18.64529610544454
P        11.50911024681215   11.47554188792061   16.26267012838450
P        14.10822721206612   11.95793147650285   18.91640075870163
P        11.39401736594819    8.63498841786675   18.67245513667475
In       10.59089860883928   13.27029431849793    2.42292657799611
In       15.05143042784916   16.81127153202851    1.23401521250294
In       13.55172196751712   15.01118331675088    4.84695662295029
In       10.94930772899095   16.86920678176006    2.84288741680884
P        11.14909503796219   14.84775517884196    4.23548379873729
P        12.63374329667259   17.32091053222337    1.12816104952949
P        16.10090102817608   18.49499517828950    2.73454413416026
P        15.45524794989452   15.51076071064411    3.32008510119981
In       10.22938306823869   14.18122112865186    7.64940297936494
In       15.57695960551424   17.52129815655582    6.31010939345754
In       13.86882916016810   14.84767120358548    8.65414984286631
In       11.90238681379038   17.93405437599696    6.91728474973629
P        11.69341607451967   15.99764619273119    8.41223849915536
P        13.54346116357786   18.34832033390052    5.13507216523197
P        16.23853847862040   19.51223115604002    7.66971547893268
P        15.82525490306293   16.37738111774382    8.52273788565078
In       10.89702997276915   14.94133531022549   11.76934507674818
In       15.68729788008165   18.09944798337743   11.75534379037144
In       14.18001574047884   15.05261059575443   12.24398216705144
In       12.21543852666232   18.10469850316813   11.19306182770029
P        12.33202740487093   16.50819555116880   13.07787895928792
P        14.20368676801849   18.66404817171565    9.81644015751283
P        17.64870051124567   19.27671675910361   12.79532074041798
P        15.95855607679578   16.31684420077192   13.48617778986655
In       10.90658764245633   13.76499102655597   15.69100750700391
In       15.82569380542068   17.48549207379647   16.63850271900835
In       13.86141207767088   14.04709857451521   17.61251996007167
In       12.25600439723867   17.17093368892836   16.52032390786379
P        13.03387278674844   15.04858525998504   15.47362394609517
P        14.01362036130948   18.16877557895440   15.07500113700251
P        17.96714598559739   17.93059422563952   15.41499652732052
P        15.88528898519232   15.42854932393439   18.02960745810907
In       12.86694608648010   19.75484450909506    0.95960663801926
In       16.80752842304869   20.04252430593727    0.91018805952607
P        14.71190862128239   21.32671197987167    1.11588684149450
P        18.73875841530239   21.14882665082515    1.96302054014203
In       14.07063424867444   20.75633107276545    5.06172189391866
In       19.48134041342172   24.69908569128934    7.21196492368923
In       17.62824881754353   20.65083666574377    5.91294271753080
In       16.43605992417023   23.63530027649422    4.33166465605097
P        16.22763138858420   21.21453469263658    3.89660273088412
P        18.71815341850741   22.40180808790183    7.30998400942571
In       14.22275966327876   21.11469522406185   10.21496584123467
In       19.54749612071333   23.94676031039013   13.64882720861588
In       17.91893186748558   20.69685620123679   10.75426753556126
In       16.56611646584613   24.08795859178358   10.35203190853957
P        16.35790309725633   21.91757869477913    9.22281856343255
P        19.36404545959050   21.88548087225593   12.39255998921587
In       14.07597030684951   20.62259271916936   15.24255082476248
In       17.81259761951529   20.36298009873380   15.95615087332980
P        16.21119050809260   21.37476275591443   14.36494348513905
P        18.26189143122566   19.87465024234843   18.31190833924090
In       16.10005862460944    4.90661554322092    3.27720237288007
P        14.45048111968190    6.64253972583882    2.90331487785525
P        17.67827862067910    6.07422059014689    4.75880133242409
In       15.02878317373634    5.43682105533653    7.13465826709391
In       11.69699958142153    6.82925368520289    5.57992669968246
P        14.03685722967129    7.42369429974884    5.98462362026161
P        16.62222334956098    6.02302569341199    8.95711276733346
P        13.36012211242374    4.06678629988996    8.24238283086243
In       15.46649477977872    4.86254860049691   11.92343291664357
In       11.77849532804891    5.63835010629679   11.50355729719456
P        13.95308231665509    6.52992157944472   10.85285100657047
P        16.80280043624894    6.17536271129493   13.56067055148691
P        16.28541113049102    3.14954266203516   10.41557687802841
In       13.74783803247441    4.60468871352403   15.47653633452532
P        13.39563938221737    6.97282508651796   14.98988984358683
P        16.11745153641788    4.43882718571222   16.08088656254984
In       14.24052562609738    9.08982519283098    3.04701822322511
In       19.22299839267204   11.46503151171506    1.90683838355898
In       17.44510174203136    8.28664362113234    3.65644252796904
In       17.02843561384051   11.74719700512764    4.58729317748634
P        15.78279732476908    9.62115265501220    4.95238322344079
P        18.84877601768977   13.21651572622565    3.66917724012201
P        21.33814018059850   12.10163038939791    0.76620588049043
P        19.54221609918917    9.59972431963771    3.51810524011441
In       13.71126482394297    8.38056394762823    8.27308309460378
In       19.29177306727036   11.35154416400340    7.13098183920316
In       17.15777857025155    8.22700633387224    7.91630180753150
In       16.40701753782599   11.94683116771108    8.92868389998306
P        15.62420966750964    9.61057822560131    9.29148436051909
P        18.59367293271635   13.18174838182368    8.66413278712994
P        20.95291053208296   12.33890809445093    5.55252825275047
P        19.17970489133862    9.43792142605664    8.69787134158443
In       14.04070954131931    8.68658184869570   12.08947175392692
In       19.38715529117509   11.39086092032675   11.53016834942789
In       17.43725889991712    8.07226327520917   12.03898073785806
In       16.30767602329742   11.67755383742167   12.55112059393405
P        15.92095072452826    9.40540374109535   13.54639461527112
P        18.43955141804254   12.85849212595419   13.33172581991451
P        21.53252410121468   12.03350898178965   10.42155016871498
P        18.97835525757773    9.64553237525510   13.29477232215077
In       13.16171261624679    7.54143506325308   17.37782699014845
In       18.43011154720006   10.21015795041614   16.67487229295835
In       16.64316567220492    6.66313320428628   17.06378061477252
In       14.96460773822979   10.47451889902987   17.13714079528589
P        15.31008943676319    8.32651869147304   18.31796053537910
P        16.59794905406387   11.55542443119731   15.58354728098662
P        20.21432169507191   11.40999636727818   15.35315512908375
P        17.98854027277906    8.04587840323692   15.45822926755888
In       17.06783946277649   14.05861671162886    2.10567978076555
In       21.88516161241781   16.96849609909110    4.13859345124142
In       20.55032881387119   14.46005647917730    0.63597067433059
In       18.21322286078496   17.17080236763958    2.62900167843457
P        18.36182778605042   15.63450635018612    0.68719435167529
P        19.86790125713546   18.41455290425895    4.00276077735337
P        23.35826331556907   18.87226502772830    3.50668625422737
P        21.28369842145204   14.87480311399349    2.95030298405389
In       17.25386444311279   14.75777461303896    7.27638171360639
In       21.81344273617045   17.58474357925316    7.80932743567513
In       20.41542290868797   14.64343754518046    6.39282956228775
In       18.32914568012274   18.07537100639912    7.78239084849900
P        18.63806793206748   16.38160527009051    5.97179858276986
P        20.21050211342333   18.88431984710587    9.21028515568576
P        23.85944198159762   18.61278252559628    8.80062756199524
P        21.48756454723198   15.21800418541450    8.56657382358799
In       17.36896705533989   14.77053343931200   12.12919087864690
In       22.54376469099070   17.12596062531421   12.72076567519940
In       20.90789756630355   14.22150719639914   11.48858686900352
In       19.12746983089496   17.48280722984484   11.85533492295919
P        19.01785797183250   15.45426463543182   10.39945780624495
P        20.45564467090793   17.71423078119558   13.94309902322028
P        24.48498209873659   18.25741708177196   13.78589459768445
P        22.03013066794865   14.81658794738410   13.61076903935664
In       17.15747487204544   13.58311178196962   16.94463499070135
In       22.61941276292449   16.31111312783285   16.52486995546726
In       20.56345893789084   13.52143022197493   16.65851193746997
In       18.89174504469185   16.57510237699136   17.32096598823277
P        18.77217569903080   14.84813738249609   15.51376845385500
P        21.11406571421104   16.84192761617113   18.40124774509278
P        24.83154402309694   17.43083691110028   16.65771769361552
P        23.01267400502264   13.84961797035876   16.34529080519494
In       20.64137594225927   19.58943322762139    1.94722644828962
In       24.46628106637508   20.83384829676528    2.45962123632821
P        22.63269817458082   20.56670806177389    0.87580230830643
In       20.61847100237978   20.87337266137281    7.77273679180137
In       23.93246734498611   20.60241524032005    7.28621318686717
In       21.52748139254713   22.27933423429825    4.62617359835255
P        21.96830356406182   20.14222420933942    5.78882254949032
P        26.24248189987052   21.24700464615048    7.71487360003154
In       20.89387532922574   20.05338129313249   13.11025513752819
In       24.20322612438294   20.42419293369922   12.60937270105165
In       22.26807946669341   22.26867123367171   10.51743202549706
P        22.31523965459169   19.83650905476548   11.05446747423546
P        23.44815469351042   22.17974473019153   14.11109699031997
In       20.63976874433634   19.26914182345775   18.31243428089938
In       24.20232265041469   19.79237491419987   16.97524921183786
P        21.88128122466542   20.32373681236674   16.48657415111383
In       23.22483329748313    5.28490901850718    1.69805147833525
In       19.92416082104241    5.39581043679937    4.01588300427679
P        20.85332701549135    5.87275463324379    1.80681713239534
P        25.17760394707928    6.36751202346548    2.62601627422461
In       22.19663988653627    4.80503484469376    7.46601929193032
In       18.60167939588104    5.12452416887895    7.75471232984333
P        18.00371921859499    3.17759889140406    6.42765215574492
P        20.59806267666789    6.07757625528053    8.88018484774273
P        23.13525474534144    6.33700182598927    5.78797604038124
P        21.46407956244534    2.56291682261423    8.05071191901485
In       22.37760266306533    5.58461762762480   12.29864941370745
In       18.86869474237737    5.00813185087030   12.74675075062384
P        19.88720416680848    3.80545991768996   10.88594064755760
P        20.53955962241438    6.62419659420437   13.63763698851578
P        22.96685244518848    6.96910276886886   10.32750665570202
P        23.38530784439386    3.49065473531785   13.02341092873344
In       22.56620225209426    4.48702617516864   16.64960589514512
In       18.25568209837409    3.24635211911006   16.12894251402897
P        20.23226028426356    4.68157963414743   15.89511602937928
P        23.87524683867930    6.02218641379703   15.28844696729487
In       21.13884214908180    8.31682719882636    2.10501888748032
In       26.22197054966860   12.02112501261046    2.30921117896447
In       24.79549799800866    8.78235988393953    2.79547712289725
In       22.43176556923524   11.26865748612200    2.83653032257693
P        22.62574510388276    9.04857818993391    3.96677456911437
P        24.35174845519454   12.46402003708195    3.86588885328185
P        26.69142761747137   13.94414432859673    0.86140429957257
P        25.01120960260755   10.37203685614099    0.94305202169043
In       20.80062237204315    8.07376687237127    7.39300750616070
In       26.08731872279509   12.25314997780418    7.28782180344089
In       24.36458334225319    8.16369257670539    6.88429657399653
In       22.69887428728403   11.37233713523442    7.04141086170201
P        22.73789612292615    9.28154741333270    8.39125394316394
P        24.09608619664004   12.49828091635073    8.78689707893981
P        26.33945849356174   14.09803264850574    5.66749779677663
P        25.58323257296861   10.15324450165908    6.08909681977907
In       20.79614791864418    8.47549203186623   11.99152516110218
In       25.92597578758710   11.43826074382252   12.14137634898546
In       24.71119513149754    8.09201366879732   11.69861211414641
In       22.67132220115146   11.38832344083728   12.54583081882862
P        22.92821009918686    8.98328707337895   13.18080366177073
P        24.48637058169573   12.39857562055330   13.97223776951590
P        26.30183630160775   13.42959659588163   10.69146135318364
P        24.60208520023030   10.22195685633705   10.41886916208393
In       19.88074570441947    6.99360145186840   16.76735590884092
In       25.75433150050055   11.31761093626953   17.13974728196143
In       24.20269088530458    7.94694011978677   16.78557278881086
In       21.81168408952835   10.37544991706468   17.00380798616411
P        21.91668639723359    8.00840284090716   17.74554662493506
P        23.71806945100199   10.94180760891826   18.50626907652869
P        26.14656155604528   13.53110169944907   16.06420846738044
P        24.50375366405471   10.00982522529714   15.43862489881981
In       23.62801946753029   14.30011537542033    2.34712036994138
In       27.28085501836776   15.76847274837583    2.34618771102365
In       24.09424989950532   17.57312791703461    1.51418437435002
P        25.03992862902865   16.11675787727264    3.28713570483932
In       23.70386696589845   14.65248355910402    7.56275572883626
In       27.76620125187776   15.34454927531468    7.24432402654993
In       25.30366913988073   17.58511809423456    7.04229243731080
P        25.71877429355596   15.68944616842874    8.60964247136477
P        26.52189948486993   18.65611974055191    5.23854627322889
P        28.93878030001197   17.45627280775410    7.49339174183538
In       24.41120768651153   14.61355014798321   12.82913505176056
In       27.85565334579342   14.44591225320926   12.32276441551896
In       26.40943350944161   17.61386839142155   12.33870568529269
P        26.39285311693189   15.68313119573937   13.91990005002290
P        26.51285846196665   19.12324950608868   10.42187904344207
P        29.26405942918763   15.98843231692328   11.08009981776287
In       23.65400349758526   13.40882943417144   18.69176559379287
In       27.53217755630404   14.52362838364058   17.81720653449984
In       25.01784709273300   16.80308633413129   19.03365439288678
P        25.73198887611029   14.49476189753634   19.47896767091060
