152
 energy: -10.750365400098 gnorm: 0.000725192915 xtb: 6.4.1 (afa7bdf)
In        6.27478363494200    6.95179759324246    4.52776932621383
P         6.92833633578040    4.66389986254477    4.83195599287426
In        6.02138313962724    4.83232559106664   10.10165067366477
P         4.86442659883267    4.95355280842590    7.97897624959575
P         6.98171671850980    2.62496677643455   10.61066681299035
In        6.12663484975902   11.36716609465167    4.55199626650075
In        6.01562785375642   15.77579955574993    4.61048324647941
P         7.17043882553227   13.60066564938982    4.63752858593782
P         7.27861361823193    9.19164286189327    4.66276818129682
In        5.99390416651820    9.20641148272193   10.01075268739783
In        6.01155486579077   13.73142344118763   10.03318029707097
P         5.16725131922022    9.19557751557778    7.73000165414912
P         5.11812319166603   13.67675484581899    7.77785700632422
P         6.95392759228792   11.46368467861945   10.49425036270110
P         7.11228967219920    7.03377115510028   10.55173055362309
In        6.32492272575293   11.59860496470076   15.68013689221952
P         5.36654985369827   11.50168942050896   13.44574228428528
P         7.06410777870507   13.93095190645963   15.95631163272906
P         7.22116893249538    9.36354301400598   16.20051667416347
P         7.01203369883750   17.99583311792112    4.51996802027599
In        5.71005397270556   17.85004046730326   10.92980210814560
P         7.12931805320983   15.90318565460452   10.57315919749432
P         7.58256461758443   17.44757293644417   16.33737607728003
In        9.88063498173078    2.41745203652923    4.57654484386902
In       10.08097366447705    6.68605919133452    4.55287738488611
P         9.44308365354120    6.86448421027759    2.20037880582502
P        11.11405131663378    4.47296966390322    5.06758573368227
In        9.98524092350805    0.08576078096154   10.56542285607499
In        9.51964422283673    4.64937049514149   10.18232442292174
In        7.87057065718455    2.30003266284240    8.34817792587579
P         9.03440988930982    0.13071713919543    8.32904121790705
P         8.66546810436862    4.60286828333119    7.86101319852478
P        10.61425870149128    2.45841201663568   10.59002645080947
In        9.75395015176844    6.84641473289493   15.74392637439770
In        7.08192527324488    5.07414323193454   13.94725827000632
P         8.71641623918143    6.83215880406177   13.47501895803772
P        10.38030140386980    4.49415509947412   16.05751025579054
In        8.45434178168177    9.09958312875278    2.47209478739677
In        9.73388234107677   11.37026738932775    4.56973420365928
In        9.61866618656278   15.99375808107544    4.51612573914488
In        8.30296881633084   13.61863411987935    2.42339737864991
P         9.37368666281598   11.38771745385412    2.12078246183465
P         9.22899071173284   15.90676374122953    2.07530384041749
P        10.53706452802948   13.70652801222275    4.88645944101362
P        10.64759741792584    9.08398721156604    4.95514178688953
In        7.80414320366284    6.91567739490988    8.16612410406096
In        9.39379347592182    9.23806059308405   10.05214406258547
In        9.41889701872850   13.81104660659775    9.99296825687613
In        7.76701214546372   11.48445927268450    8.15105079923256
P         8.66089775460613    9.20460042028194    7.68058230031097
P         8.59673645020758   13.78196077274331    7.65384092823028
P        10.26426461904345   11.52427317109466   10.49328163438189
P        10.30086292414774    6.97844567565481   10.59006654276233
In        7.84242573203797    9.14318414307912   13.83735733937681
In        9.82762489546844   11.38565489502834   15.66104337455267
In       10.42828988046250   15.79509482817012   15.53355471673340
In        7.99247947963091   13.76315530768064   13.69854093474798
P         8.78004459251964   11.41591229951775   13.41060224601468
P         9.24605464837046   15.88898930740515   13.33782059558475
P        11.18536444553555   13.45508781011452   15.89825433140055
P        10.75438703469261    9.10302882900429   15.99375161217503
In        8.13402406662578   18.12608059782843    2.33905985522585
In        9.57325125451004   20.61375710935573    4.35283818994440
P         9.11280658497405   20.35176201904905    1.96028551011665
P        10.07480022042528   22.83257973714568    5.21718218486041
P        10.37198972364805   18.33298343281155    4.94275385544647
In        7.71954284173434   16.05851159209465    8.16653621627887
In        9.52871581778058   18.34065814358284   10.04633609042792
In        7.22773395962399   20.27228769176155    7.80734710842158
P         8.67608029354914   18.31571927741286    7.71206570208631
P        10.47570625787813   20.53619223074437   10.63212752638396
P        10.41005323254057   16.04846115679235   10.46126768403793
In        8.31495786935601   18.06674796760796   14.11002626816083
In       10.70429144535816   20.31441812763167   15.77924956140208
P         9.39654902778388   20.24234556453134   13.72600507758260
P        11.52215569972922   18.00366517612326   15.80328396602954
In       13.32662832794308    6.91296157561849    5.23097005150531
In       12.55364998930891    4.47518573947330    3.05953810524331
P        12.88672847081080    6.89668881337998    2.79318722637723
P        14.93458131525579    5.13416435753948    5.66625299277360
In       13.69786228171464    0.93817496097651   10.35994418863426
In       12.97855644351389    4.96823446037332   10.34331915670438
In       11.33552025731249    2.48284274190273    8.22336352689892
P        12.96572023456704    0.65642168083181    8.06574647988954
P        12.26187677894139    4.76429350820126    7.98618594281388
P        14.43172760381062    3.13413052819945   11.22393723103957
In       13.15662860088966    6.50169469330062   15.43753088333838
In       11.00756968205454    4.36278878526377   13.69495085615668
P        12.78941208166743    2.70887403434751   13.85629980653360
P        11.96039935253021    6.63226441422451   13.28063520418815
In       11.89346353618675    9.16847864005744    2.81007508756417
In       13.12347088918148   11.48710457327582    5.05378526110095
In       12.86805970069088   16.08482867459592    4.94177201495267
In       11.75114501829416   13.63200836797909    2.71910390021850
P        12.91274176230650   11.43009918047275    2.59851988994819
P        12.44712579140623   16.01186184223857    2.50633004710015
P        13.90878417936850   13.84289619749197    5.31311561925087
P        14.10479564247927    9.25604352549476    5.57840727744255
In       11.17588231264593    6.97311074789962    8.26935460545312
In       12.75377530000783    9.45363650845830   10.01529556840587
In       12.76873053644404   13.80734482658588    9.88561557159248
In       11.02613829974621   11.53501637150633    8.13186710166475
P        11.94976578653069    9.26788732439822    7.69121349297857
P        11.88725344109903   13.80111109340377    7.58126958617509
P        13.78936582899106   11.65049382099758   10.67075033095663
P        13.75494968484748    7.30230216969682   10.80869354123172
In       11.17856009921833    8.97319299609802   13.56367188880987
In       13.47822387497943   10.87613904459952   15.36926961902443
In       13.84157485553367   15.20038636227631   15.03377156270869
In       11.38532898159934   13.44086836948477   13.42975208479005
P        12.30484723585634   11.15580820588710   13.20965939768620
P        12.50963155320856   15.61431712188014   12.97564162548338
P        14.85270411624026   12.93953023247598   15.24431949556834
P        14.43574511652574    8.60097170391693   15.62784743162895
In       11.57889057666490   18.32801842431275    2.76459595483675
In       13.41521256721023   20.64622518050918    5.12297035965135
P        12.58900771918214   20.57044431684561    2.84488192038044
P        14.01530363035593   18.26637725484245    5.30174203407854
In       11.14331305299645   16.12576150857042    8.09700466656796
In       13.10607096956020   18.38266519077571    9.83364736425920
In       11.17921194149138   20.73023911602280    8.30824249779435
P        11.90149161196402   18.45288654345764    7.65419876037069
P        14.63307689913914   20.24406163501571    9.48241896834439
P        13.83401080863937   16.02910070983124   10.23347245646568
In       11.73393406897595   17.94616390559777   13.34335703941650
In       14.88530094353251   19.30957184008373   14.27793778250587
In       12.79359106303029   22.38875494705627   12.93555184643168
P        13.05573099715757   19.97788732517628   12.78540528921835
P        15.53087191487227   16.99579117060189   14.74329122689946
In       18.13514588108184    5.99098407668034   10.30073128565668
In       15.69899306286544    3.43287256062562    9.11136044923892
P        16.63729784134420    5.60931363032982    8.42802075956402
In       16.47333401345019    4.19720718691270   14.27300630735774
P        15.28108575358709    5.63141207055028   12.72249001173697
In       15.74724412836653    9.21742188174320    3.74124480996086
In       18.32018001100515   11.75439465758032    5.29372728102556
In       15.48677335076259   13.85570774161361    3.41702924093151
P        16.25492587749126   11.60329016641681    4.02030234339251
In       14.98986756161389    7.45445644192326    8.64726348464345
In       17.71476368464473    9.93165316686971    9.72100322027595
In       17.72152115635049   14.00720560000649    9.22111962910623
In       14.77115619937803   11.76480781149346    8.35769279211510
P        16.01110260668857    9.63252011125127    8.01253273548813
P        15.89736718312655   13.86604754553715    7.62074639378484
In       15.86005911926662    7.81920762897448   13.76244602343882
In       15.92546039011397   11.82323980394661   13.30791725193778
P        15.04885025979654    9.68598108924050   12.36097786705227
P        15.23317217710930   13.81649653718318   11.98154946186499
In       15.67655146998747   18.04547083201390    3.53522049373544
In       14.85756391376153   16.10075764098092    7.97723486849410
P        16.68409914094811   17.69687828321500    8.02524949130624
In       16.48379524567964   15.72734623625167   12.87593628097250
