20
 energy: -1.128805212423 gnorm: 0.000592526535 xtb: 6.4.1 (afa7bdf)
In        3.94856943964230    6.60877048374416    4.89490393895673
P         3.68107810189190    4.38980851818581    5.78846240971436
In        3.05139723537547    2.29339488684312    9.81972498399181
In        3.52605087155824    6.67345547620027    8.95467746970036
In        0.38821652549720    4.64156749265444    8.58036182754520
P         0.64823576977785    2.44158646674941    9.56312871898955
P         1.55167472355694    6.49339950800379    7.44391958812375
P         3.90521226225678    4.53778504734918   10.10089080090019
In        1.25631721301076    4.23531586590357   13.52591182937771
P         1.86971238737073    6.17804364772515   12.22820749423143
In        4.01253520193334   10.38451644269867    4.87432224187049
P         2.91547945163485    8.54024591994453    6.01788723209875
In        0.15444597179911    8.39376214425470    8.19329719266747
In        3.44065632238454   10.25022845605710    9.15254468065504
In        0.25442247165097   12.13497040694751    9.02908201491974
P         1.43061780838127   10.45841818329068    7.70803054303881
P         3.96491019287610   12.24045925064306   10.43559816763785
P         2.72579749754222    8.36126841634676   10.56389200860700
In        0.64642852157259    7.94879491830919   13.38770512038510
P         1.30371703025376   10.21560846803590   12.91805173662077
