142
 energy: -9.256345668958 gnorm: 0.000395244391 xtb: 6.4.1 (afa7bdf)
In        3.34713353936736    4.78911627110282   12.21476973878552
In        4.57710430864960    2.24881818837194   14.58274632020096
In        0.68088266805340    4.31344155052320   15.12755045162023
P         2.63494565499445    3.04619453276674   15.78329539321863
P         1.23623225573000    5.69088735949037   13.15418416886347
P         4.33535312909177    5.95537892566601   15.74274848100214
P         5.51229146508144    3.71386348549963   12.81311079086216
In        0.64646392521436    1.25801379128460   19.08135573274544
In        2.98369015518852    4.80765822777691   19.09415831865193
In        3.29010488860030    2.66193619804603   22.30810129013460
In       -0.12989984827057    4.66121130515456   22.29243028908840
P         1.71361626976238    3.89975766637981   23.67123466984995
P         1.07009179700589    5.71865772760106   20.39554941933926
P         4.42809079392947    5.85349523652908   23.57137285932392
P         4.66402436103573    3.67533400239271   20.52084300061031
In        0.03493069290301    1.71804139185735   26.55986184208252
In        3.07596260376613    4.93630610836132   27.13033988270417
In        3.24170618681998    2.32185467030138   29.38088383678833
In        0.55294488794596    5.18864080276931   30.45779018194157
P         2.62603741236991    4.04005129804113   30.99359438585342
P         1.37723241999004    6.25910683799009   28.37673642488073
P         4.80189507040095    6.38292790662223   31.28091849083869
P         4.90079411930454    3.42481981853140   27.88662621497892
In       -0.40374238466161    5.64963195367354   11.35063614948928
In        2.55307604091850    8.44445991881233   10.94874365915622
In        2.62199299764880    7.25302468266351   14.53604504865178
In       -0.82885198789584    8.53198559021551   14.07372580317631
P         0.81284647580726    8.33608026545821   15.85273105909596
P         0.82360176919015    9.38949328791989   12.44265052125312
P         4.04313438666921    9.88886754830999   15.85404457208309
P         4.21881303984257    7.89702247962125   12.69803936232600
In       -0.64193333333373    6.10608058636843   18.68710882782433
In        2.71151169700461    8.24845460632056   18.78709291182483
In        2.75814924215298    6.72618262967589   21.97235109172063
In       -0.59810165403175    8.60236849489822   21.97005309792399
P         1.18798296871278    7.93070882538650   23.46501538092545
P         0.89230344196930    9.29323574531421   20.11436693531663
P         4.50771571863773    9.41972690155255   23.18579979688330
P         4.48664772804265    7.38812485762399   20.28188089705662
In       -0.42350973524297    6.39947039207039   26.71989986970112
In        3.26849971217643    8.30542613086461   26.23953240361269
In        3.19649821074174    7.40170388312670   29.69585630431598
In        0.17092641511129    9.12592107082999   29.55772687807270
P         1.95135696134054    8.92749809019006   31.21185474705999
P         1.56036285539672    9.53736238302947   27.54169792233175
P         5.52758803894066   10.00683580071616   30.20376709909482
P         4.92036753153944    7.46945310862802   27.87341195903554
In       -0.12275880056740   11.46722422789752   11.54373191551638
In        2.85675195250026   13.97885782804608   11.30828068603530
In        2.48173886171121   10.45193415006714   14.02752194245808
In        0.96115859676308   14.11647457050928   14.71416313260917
P         0.80708725588728   11.76372662383034   15.25852292810008
P         2.37129936180005   15.41463388902440   13.21439887000043
P         4.33657563056429   15.19425653750188   16.39174436311200
P         3.74159204328356   12.12282707702823   12.66988461170882
In       -0.55538595434741   10.82177368961786   18.86419406181791
In        2.92625882685028   12.34326092525827   18.31512705001194
In        2.77801763421899   10.10922341786653   21.57233145881438
In        1.58059174389764   14.10138755377653   21.39507733551887
P         1.33620172206547   11.91804445846346   22.40236290594382
P         2.85397476018552   14.52833118635923   19.36845764047485
P         4.81656585456022   14.85344750267493   22.90095904009794
P         4.33628237425075   11.08159244170486   19.88590174607667
In        0.09799983177598   10.85745138818394   26.08825979919428
In        3.63180496323413   12.32460458497063   25.28184009945505
In        3.47911868257116   10.47600392824930   28.88561335992317
In        1.69519649265786   14.17790777670215   28.02352151981898
P         1.78767777285305   12.19540733483914   29.41517504586445
P         2.83284346315518   14.51780886268613   25.91250060093873
P         4.45244291426051   13.02182028528516   31.08605951899892
P         4.97043693909530   11.36054989477259   27.08811685302931
In        6.14572430226008    3.06861427792689   10.53367954326295
In        9.16731054899910    4.42630852524028   12.56751526399675
In        8.35939647658944    2.45807286813855   15.97504482042464
In        6.34562400550917    5.48620276727105   14.38390623933827
P         7.94734762751912    4.84038205962133   16.14836784376459
P         8.01913477383816    6.61014587370101   12.84463706185360
P        11.08087842015279    6.17619196783345   15.46148462181646
P         8.24302930997808    2.41032437761957   13.55306959672142
In        5.90894526759048    2.19155135716098   19.04211863741978
In        9.63222948397006    4.00552983939711   19.74124222974208
In        8.13374345504717    1.65224738225554   23.02160146949895
In        6.16260790961537    4.94111602666446   22.07421995814754
P         7.82957861868593    3.98186002472566   23.61604471855761
P         7.99985249790933    5.68043429461877   20.53100941638989
P        11.05445212777709    4.92390606937645   23.21499873315505
P         9.35863474254341    1.92781557297068   20.95211380245114
In        5.34569195593186    2.09323917024156   25.88668626605268
In        9.15382171663056    3.21322467316690   27.38214622487522
In        6.37936379811842    0.93286895699245   30.28723958954732
In        5.87621145145699    4.68133460446979   29.83797118477548
P         5.63750233815937    2.88117105618883   31.53244509731293
P         7.87229336873268    5.07779058094540   28.36692775359332
P         9.40739864875986    3.26640826077696   31.42840182448448
P         7.87805761579814    1.46503917006205   28.46650273249022
In        6.12055014522377    7.07817426302206   11.31638449781069
In        9.20148770859817    9.24763055370693   11.35814107962723
In        9.42973423041652    7.75893663346885   14.57428968785362
In        5.74041394764435    8.66853468635442   14.54876701241214
P         7.50662059438633    7.95924957319307   16.13551482148223
P         7.26795782668510    9.67404461802337   12.85016476109282
P         9.83553119111017   10.86207481896088   16.64899504074396
P        10.75181385275026    9.39478788141687   13.24197790590412
In        6.19883147474708    6.23077487407838   18.91725617529486
In        9.92097873595587    8.07071000696021   18.96427340473065
In        9.54994769019169    6.61781112389047   22.27414151081205
In        6.22285800501644    8.17075875372341   21.91836118717368
P         7.67750141264319    7.32288902393000   23.73564763789258
P         7.90891584871293    8.86351296047802   20.17675996869603
P        10.23842406665830    9.68255089966271   24.05578195988707
P        11.17647952984004    8.03762879847190   21.04349834013201
In        6.42386052069405    5.98289551148539   26.57541630586627
In       10.19424515264425    7.03683028432446   26.79082660177697
In        9.39570331923918    5.44177130459875   30.31991858415915
In        6.85561926085479    8.10746894087725   29.33525662825991
P         8.05369024111864    7.24990025985700   31.31633816255091
P         8.34203670994194    8.55826901581415   27.36097543627291
P        10.70189596501051    9.69521245142077   29.97317529586449
P        11.20156873730192    6.01339236524919   28.73710734212295
In        5.70417105247555   11.11219370748673   11.59699065918119
In        8.00643216944427   14.33824571019230   12.82507993771802
In        8.30388871289774   10.98234045995384   14.74083850755679
In        4.52103257051755   13.44640359056345   14.66389089063273
P         6.40520947611611   12.23000067122341   15.66574515854427
P         5.65745807630184   14.89732383737007   13.01886359866932
P        11.85117172035896   13.59074166515844   18.04732632403159
P         9.34782752820881   12.32647146032690   12.95879004944848
In        6.37803811036185   10.23720618245025   18.81705642769869
In        8.40207071418233   13.40370990405482   19.77076724581860
In        8.86021989479757   10.20514670922521   22.08948395107123
In        5.10037957866671   12.82093303352459   21.54048624543036
P         6.92526396040882   11.61089174783357   22.66871343876209
P         6.04724113062590   13.93537589339850   19.54980088274408
P        10.47541362905092   13.87828483798794   23.39247148686069
P         9.90561073241110   11.58681470001971   20.33187180758932
In        6.58995207504389    9.78070405549281   26.12797210193612
In        7.63080760300365   13.49296543708939   25.87565129673228
In        9.18068061081495   10.71269957995368   28.34971834227465
In        5.42360791962334   13.12731932490643   28.82617473025317
P         7.68166768624362   12.33501509108783   29.43074242246109
P         5.96292531528700   14.78216650775747   27.06461812878404
P         9.53479778185865   12.05780636007671   26.30732141879264
