82
 energy: -5.293264022890 gnorm: 0.000601799410 xtb: 6.4.1 (afa7bdf)
P         8.17445904110111    4.19556258830906    4.20926343757076
In        6.70744002420700    3.37066501585077    8.75054605177555
P         5.28663101679653    5.36342003184927    8.60280248732109
P         9.03377683445310    4.18539285213817    9.02053627666689
P         7.32256264624121    1.71673531685060    7.05741573814072
In        6.34998673152050    3.86535889633289   12.32414663271355
In        4.65921301040983    0.70152579956962   10.68779921414386
In        2.75211613028230    4.34205987403952   11.21258312250255
P         4.28322571350078    5.10118799404122   12.93910057997750
P         8.25984937602592    4.80997080846938   13.59162148898583
P         5.97629659420120    1.42272676220944   12.59981669840896
In        6.65623348111966    4.03676834049786   16.86486885608966
P         5.96595251430837    5.94416211852386   15.49490214604628
P         8.53783429602406    5.05838733708209   18.07426930694416
P         7.36286293594624    2.26563208231765   15.32683177625312
P         9.97013314816789    8.39052304761135    4.24443805300625
In        5.16644583892471    5.88340034167233    6.23718757425855
In       10.04127677289027   10.25414255948751    9.10059911910558
In        8.41193365481968    6.16864582581359    7.64006833579371
In        6.88212865333202    9.25107980353817    6.50672581867897
P         7.26427929148259    7.00138678629073    5.58803928549967
P         8.75002770715165   10.69480741233142    7.06846351309255
P        12.48756110473209   10.51115088617239    9.12729498375002
P         9.48530125288157    7.82078056101244    9.16257993486924
In        5.03402200389018    7.33560022090749   12.22039506704354
In       10.53947361526915   10.30571742645168   12.58691363304128
In        8.82294469663093    6.90586017435198   12.36771230131126
In        6.71013449855476   10.16813542243892   10.71216894134514
P         7.04129166143650    7.72273576481165   10.83132503047320
P         8.29941320853087   11.22888820090922   12.20334371789354
P        12.98459721393569   10.50641539459693   12.61852042958305
P        10.45457994638073    8.13500000385826   13.79269318560593
In        5.88099679886907    8.19268879277422   16.44491096999274
In       11.04155651846474   10.03507704619649   18.14176781593809
In        9.36881273443063    7.08197547723835   16.91353430375690
In        8.21897639564539   10.90116133548162   15.92439581937719
P         8.06815971371033    8.50284817225490   15.32589143511070
P         8.68101639764017   10.66718087537065   18.28940833468810
P        11.89281357708481   10.21558249404223   15.84523132853188
P        11.25281417251467    7.59804247256699   18.43632815310375
In        7.24170733036254    7.78286579708410   20.89733505645536
P        13.14838066483756    5.45889188493094    4.38932476661482
In        9.58409966105279    1.23101672763678    6.33033409034694
In       14.56597965463242    4.59381942136102    8.22531394495933
In       13.36607202363769    1.80717655026936    5.92489320823194
In       11.16013906923862    4.10644542800196    7.73344170138437
P        11.19916685196739    2.91042250166441    5.54531238356691
P        12.52028197810212    5.69403207288989    9.10381842674716
P        16.06025402923437    6.16651266461759    7.09187720137918
P        13.71307244747573    2.27580922033503    8.29109852195051
In        8.21903452655978    0.61003256045516   11.99966717181317
In       13.93553732963191    3.79640972227012   13.47947478361538
In       12.26742928828084    1.10396086273412   11.33483112645542
In       10.09333008499807    3.96662808390049   12.10985035647242
P         9.98053887253462    1.84113292001638   10.81997765635211
P        11.78338599471610    5.06608324584440   13.57007609824779
P        15.42683726206501    5.70773604732121   13.91530834699943
P        13.79142864465028    3.01269861651643   11.15447138729871
In        9.22669825372009    0.80744225625304   15.93975953609688
In       13.63602767937087    4.33616234462411   18.61055034236330
In       12.61733589551858    1.48434548706105   15.91063906694378
In       10.52371876305764    3.84479201387452   17.21212371706798
P        10.60842393283286    2.65691704404576   15.00372674228340
P        12.67615515863751    4.78200171362924   16.35351102868561
P        15.67683520347720    5.22882224246879   17.58067530569528
P        13.05138004067132    1.97236926891697   18.26260826347669
In       10.74517508337685    4.71759572358984   21.67457839657012
In       11.55527359368336    7.57002134230733    7.77937886469904
In       15.07598004674967    8.36031694843911    6.78536638954957
In       12.43294008232921   10.77041397274007    6.70194394046607
P        12.81083220111520    8.48959067522863    5.83454698053654
In       12.43203168962705    7.24805833464329   12.53373583609372
In       15.58729254153799    6.07500350238943   11.49354785373246
In       15.09958101326622    9.53186696395882   11.83763782929472
P        13.94301817043219    7.71495391525113   10.60384453849500
P        16.96634126604066    9.27943505446614   13.37282360178589
P        17.76520407245225    6.75437573729449   10.65444058198478
In       12.97527468649707    7.23482493199788   16.70114925453725
In       16.48730809800436    7.40716948297336   16.88624383547183
In       14.27351297754431   10.58059250914290   16.24730600232949
P        14.77949258711019    8.33168771601905   15.35036408698481
In       14.38828726183105    8.35577892841532   20.92155087754583
