84
 energy: -5.963473089764 gnorm: 0.000114737316 xtb: 6.4.1 (afa7bdf)
P         9.74761399524666    5.76164918084739    2.55623011426430
P        11.51251181525522    6.52249653800975    5.75334851124385
In       11.61971505302175   10.61199174951157    2.24828677929377
In        9.34993115128617    8.09973872883202    3.14398590355228
P         9.48899963887492   11.70995531525697    2.79273712578700
P        13.72333674057287   11.36747757810156    3.33560571931660
P        11.60786661089302    8.76261222518757    3.94656961802784
In       11.87029105064154   10.72288827698293    7.84836472181498
In        9.88297261416908    7.63537906392173    7.23882030462433
P        10.84031743060739   11.23050161803941    5.66771390051317
P        14.24765491407411   11.28376330531613    8.31331394844231
P        11.60003924238739    8.44785182821746    8.78876643927774
In        9.13665571171433   14.09823291625861    2.57466942633101
In       14.33759899960081   16.94454005639898    3.22792019632224
In       13.54930449667643   13.65773233368875    2.39156479619336
P        11.43305354133625   14.84637156750406    2.76980286864474
P        16.34668592826236   17.66554826346027    2.05905278040613
P        15.11715813414359   14.73266994934132    4.04251592745518
In       10.32473055984945   13.47386001834278    6.53829473269128
In       15.24993387486921   16.78924172657103    7.33836596206474
In       13.49832409935691   13.62545916853756    7.93018888213049
P        12.54062713556371   14.15907158627477    5.72207127438360
P        17.01545108619306   16.07092717603854    5.77486079980496
P        15.35643399906828   14.92614822933513    8.92560377490986
In       14.95490179236149    4.57517207601804    2.07332537552284
In       11.46375298293496    4.11541996923130    3.10645384504659
P        13.41849569567727    5.46755748321803    3.83582408901723
P        16.62698531381887    5.97221852103371    3.26870648841578
P        14.86049084453194    2.17831888290436    2.61002344181063
In       15.20171932174697    4.82218591977037    7.61427812713143
In       11.58700515845802    4.51053955261012    7.18756889772423
P        13.14008683144560    5.71320147819223    8.65807535173315
P        16.81745450533739    6.66250350767372    8.06316757597541
P        15.15957708951783    3.55853492815356    5.49552535288589
In       12.66333933229600    7.25160358301127    2.26095598915976
In       18.97660595990452   11.05399260590842    1.26430730935363
In       16.82264971959730    7.67652248768577    1.48656612855085
In       15.02897031460008   10.66001845094998    1.34107601569312
P        14.48667690263974    8.27940167493531    0.92178836443124
P        16.92459162958691   11.84936522776343    2.40359379203461
P        20.20162108693554   12.22733912734552    3.07688988217937
P        18.83805558417303    8.83279900515535    2.34376912047611
In       13.72449045043418    7.89889090064125    7.57997735042124
In       18.67483875293139   10.83901959651917    5.88894502973486
In       16.86862075150327    7.89831250859073    5.92031597689232
In       15.16148023999126   10.79167215648213    6.07205173542780
P        14.51905559376794    8.49598959761793    5.27026754537419
P        16.86186716167796   12.50286227697532    5.33992168816313
P        19.54587370693398   11.34738301563948    8.14563836616616
P        19.25364238167905    8.45228679136159    5.32087856360147
In       17.00702149890086   14.33979041121051    2.45032585909014
In       20.50074313526745   14.44301402713718    2.01438995553543
In       18.63151583866544   17.54394754081834    2.87926870184291
P        18.91549030908203   15.25337542162702    3.77118484898993
P        22.64977617715103   15.47272019132808    2.61219335526682
In       16.90117209072229   13.39173204582461    7.69680315221837
In       20.25093379674351   13.61816348209473    7.40623044785337
In       18.81655371538909   17.02895838277635    7.16169012097962
P        18.57799187226058   15.03220437787890    8.56699213848900
P        21.45621866490386   14.32221579600221    5.37221244229953
In       16.74428538987090    0.67453478909901    2.37728140928548
In       22.04237456953949    4.17549629956402    3.22975689037621
In       18.43442615764035    4.62775878230427    2.19969624949346
P        18.61007246453343    2.20441933582477    2.59756682057675
P        20.04442034110167    5.47922636791082    3.91517159540481
P        23.78895726826929    5.78058165285749    2.67236797322106
In       16.82636094854870    1.97057642850930    6.37109502601810
In       22.01672547756824    4.38392136887066    7.46866997320131
In       18.48914865087040    4.90030845215453    7.51537383235878
P        18.46603233539871    3.55822807964645    5.43667481536882
P        20.45030371903949    5.78423305695838    8.74772242417376
P        22.14489327249829    6.37745434470364    6.01958809118807
In       20.84215527316225    7.35857869028684    2.47002110324211
In       24.38391542183871    8.01493328327779    3.44704588651510
In       22.02303349917009   10.57499612051087    2.69127752575381
P        22.10564785415351    8.59443355178845    4.24476282713896
P        24.20648537227715   11.69417493038868    2.84420904561521
In       19.92008043122853    8.00620972702764    7.71537262570593
In       23.74868047389535    7.47944253389990    7.53179945176645
In       21.97062264051388   10.81134091091208    8.01769651129077
P        22.03848264927173    8.51965567090322    8.94585092977338
P        22.95562356496391   11.29749091343830    5.81336114450516
In       24.51965415356894   13.99922864327487    2.17784114431810
In       23.58735310059175   13.60079178268786    6.36147977078300
