148
 energy: -10.942702031826 gnorm: 0.000136199970 xtb: 6.4.1 (afa7bdf)
In       12.80244380344755   11.87415248543374    2.21172057751804
P        11.63167764959479   13.37091744613849    0.66116118393449
P        13.56871662131560   13.42167454270389    4.01994443689249
P        14.58057394549729   10.34939201098449    1.45967979602802
In       11.78684670314433   12.28947037320007    7.07587983890540
P        10.71610449222535   13.55895599794022    5.25424721065295
P        13.46863837542316   13.45845745517759    8.46472534148709
P        13.77393886872020   11.32622542028756    5.94779427970188
In       10.28063650239984   15.16188382092648    1.58580414782028
In       15.62704766396975   18.24298751958646    2.46383640348054
In       13.69341891336961   15.35581671578653    2.42207128154988
In       12.15743012860454   19.01328665359259    2.22703512438678
P        11.64920851772299   16.70758534202139    2.92091776888709
P        14.01706309692507   19.66052063073251    3.71679554993761
P        17.87637345989592   19.21049112741012    2.93268404968141
P        15.57838057897849   16.16676624876179    3.88244362630537
In       10.80935554491105   15.59235287249249    6.61161874684075
In       16.79453386698770   17.60208243171141    6.46416603483525
In       14.18114063623697   15.69711435726617    7.67958517132776
In       12.45514815668066   18.46200965317086    6.39086034359463
P        12.99011668327784   16.17237734440619    5.52734165937616
P        14.82127755678698   19.13247060692909    6.62000039053884
P        19.30984617858106   17.57162227373222    6.48559693793385
P        16.52907749431950   16.09140601929750    8.41805665131151
In       14.91463198403467   21.89624761542716    3.21742677965101
In       19.02999075718489   24.42609399599979    1.92403400267756
In       17.59396936932099   20.66892592990483    0.93137009643988
In       15.73427973905101   24.60096025234236    0.58275309935869
P        15.62154036701907   22.16731444150599    0.89242751595566
P        16.85551983068820   25.45206508975563    2.60521203609986
P        20.46416872902816   24.93164266854879    3.91644842275832
P        19.15192919783454   21.98730297219096    2.36163450182792
In       15.10894387736084   18.94559154038893    9.07208895847265
In       19.30785748212239   22.84191267479657    7.85953212635067
In       18.91483503550899   18.60955351675751    8.74617205336128
In       17.97704609729692   20.55669485095720    6.05301206765433
P        17.08547500563005   20.24930195861118    8.34003745177907
P        19.25519036973951   22.58295674577487    5.36197357426977
P        20.59700756131505   24.70636930962881    8.88263119203990
P        20.22966371901153   20.73383750069418    8.80408462616079
In       17.60141533862188   27.74035634967811    2.09298750228613
In       21.41876853951812   26.92498655979603    2.73126094921832
P        19.77244679715410   27.56960337830567    1.02442437385070
P        23.61103088708807   26.49100817834792    1.68523314704624
In       17.21872564016288   24.01407100231897    5.54589460271201
In       19.84442856515700   26.49456846429290    7.33578641018232
P        18.27170213132032   26.22457305308134    5.44788226285755
P        21.91296192032010   25.72740015642904    6.18019120065360
P        17.29907864618537    8.31875966139087    1.10781989925051
P        17.38198238385771    8.47113253666899    6.14217974717741
In       14.99426209285475    8.94066897481116    3.40123434467392
In       19.67075756650231   13.01974600366950    3.10890827444254
In       17.79730499106493   10.31341545698871    2.45880849594549
In       15.89052779368247   12.92368395081934    3.24597106057018
P        16.31403248478374   10.76907658861116    4.45535663272048
P        17.70621064312166   13.71030273521518    1.74807489040243
P        21.21819999057085   13.12387935219807    1.16564817120479
P        19.68922479248192   10.70864116913247    4.02549681466598
In       13.94624958446427    9.45769357401332    7.53889410233589
In       19.36565298091553   11.58369257489824    6.99119876669338
In       17.51193055048223    9.38472501700566    8.44818452807073
In       15.79119934156040   12.63082764481808    8.07806214447636
P        15.41599599283595   10.45861691884196    9.22466088764576
P        17.43735600516395   12.95304480815194    6.20992120136808
P        21.71163008120167   11.36742525432035    6.17005561210656
P        19.30507085708259   10.87241257910163    9.34690891273570
In       17.85618712266686   15.93239241207483    2.85405300324228
In       23.08718231302551   17.75273775666611    0.27708260835901
In       21.09680590979350   15.54445640738729    1.72259936808102
In       20.29917271256929   18.63239005073552    3.00403539502219
P        20.10389557008628   16.30112132652012    3.89157741759525
P        20.81715478258283   18.70884652107946    0.58241373057143
P        25.26811147844215   18.92324040597231    0.10992124109238
P        23.15875009786123   16.71490653720827    2.54062985834281
In       18.46858683174325   14.72612402803438    7.64851270644135
In       24.07635544170513   18.19697035018151    5.55002599911432
In       21.85180916447684   13.88270724065871    5.92932294276785
In       21.41790499798513   16.81468239013293    7.60812823970308
P        20.89895882111815   14.42420835852491    8.15786023399106
P        23.09668489981163   18.65974719875881    7.77477208893642
P        26.20834302004794   19.52146784374068    5.77624883817011
P        23.46636403865659   15.76601094693902    5.39224239084898
In       20.96484785758419   21.17422296016176    0.86701663093896
In       25.93329877598975   23.70427121504044    3.24839289960281
In       24.35886411485748   20.98066074492955    1.15574272453548
In       22.42213129864649   23.71253023411776    2.93475757771914
P        22.51101129931405   21.21456449219709    2.82012438524985
P        24.04631294696031   24.59173058848573    4.64543550960781
P        26.48021274595807   25.15410423056720    1.33728333133852
P        25.79538720818652   21.21719911285313    3.16961625383097
In       21.42624168725661   20.18974347861593    6.71139362108506
In       25.96964455544770   24.06322594271243    8.66024755359335
In       24.89605950544864   21.57897406551527    6.28242518136354
In       22.49452734475686   23.20445900553731    8.21454259046028
P        22.53613790857548   22.25458031552974    5.87961340902346
P        23.81518956219578   24.73000964371969    9.68608211220620
P        26.66015806604842   24.87557643814593    6.43516517896019
P        25.60151924637534   21.60032750246175    8.64541059691215
In       24.84286590771490   26.78457866214751    3.77806132255554
In       23.27292762927613   26.51122610777608    8.08221068748954
In       21.69645537972508    5.55083375654674    2.73732785637770
In       17.89042800388098    6.59179140704420    2.71411190863335
P        20.01424078031829    6.91048799750952    3.90509816608026
P        22.73740315283975    6.85334936936933    0.97130533666150
In       21.94673848655850    6.18489082721440    7.51897174234260
In       18.09729950912716    6.34701731018289    7.11952284868929
P        19.90028065879695    6.84428383511234    8.70487541258993
P        22.42977121744519    7.90106986482426    5.85537950626655
In       20.82412942209868    8.93577885314456    2.68469021541366
In       26.38526825814176   11.51371929303057    2.60520014893984
In       24.18176033028304    8.56794355329434    1.97506196507571
In       23.07026847958089   11.88105861691168    2.24575946805052
P        22.92044801569957    9.84825329013158    3.70891079462382
P        24.74559567674102   13.01431358239574    3.74655147904242
P        27.79255101310352   13.23540162813113    1.56837293054104
P        25.43341326109428   10.26714117163814    0.71648878330737
In       20.79657348850056    8.92724932559972    9.69170242993235
In       25.99131687949449   12.27667126576867    7.37034848489122
In       24.30032104767541    8.92729658964155    7.11702741794009
In       22.70851452316516   11.53527906845800    8.43150411806480
P        23.22040919679089    9.27206198529003    9.31172878289658
P        24.39301133561682   13.24481658068263    8.98692658002105
P        26.59376335200054   14.04827443072060    5.74019472588973
P        24.63865264714565   10.97369512349766    5.74080343347639
In       24.80764918222671   14.88199919799316    2.06962524117730
In       29.93820577377146   18.50079689875391    1.74418042731252
In       28.37809177412165   15.48575263997542    2.35857811171024
In       26.21841192781325   18.12683660358046    2.25359561080622
P        26.33125224794871   16.06280156152910    3.66261272347663
P        28.19749414086338   19.14695346491802    3.42697857200662
P        31.45316733471887   19.22755837067816    3.54585541049273
P        28.62278134123027   16.92582505599377    0.38324091215385
In       24.23328859773547   15.36563855029466    7.73015960431196
In       29.90696153884261   18.41557784035300    6.99458909501781
In       28.05984652610792   15.37088646633851    7.24072176454542
In       26.49850341355320   18.47269015963284    8.01245558274184
P        26.32249583746670   16.14255218554804    8.81483357070781
P        28.65587538440183   19.29227419418939    8.93155720427934
P        31.12767521154412   20.50957476839162    6.53334321109041
P        28.28234772558013   17.19890675681704    5.55940441037389
In       27.90361127159039   21.06956165915959    1.83520317872955
In       31.37248940093388   21.63695417599857    3.23141769677136
In       28.80695706390106   24.46607540395455    1.09350896411356
P        29.27804261667258   22.85969931939575    2.88544714191520
In       27.96826594918099   21.42460735860887    7.84789360606802
In       31.27440993517948   21.71598132599487    8.64085221938057
In       28.96701514230778   25.07745876619305    7.20736081738648
P        29.36046743314745   23.25509646773306    8.79736276673048
