26
 energy: -1.494154205117 gnorm: 0.000468697452 xtb: 6.4.1 (afa7bdf)
In        4.80203073275914    0.10749020322192    6.50768648924866
P         4.23989116836061    1.84412801612316    8.06207767211616
P         5.29039474684251    4.40122303137228    5.84873532154590
P         6.02702203741572    0.60102683646228    4.46960728698713
In        5.05793969028555    4.50883837580789   10.69631271130279
P         5.85110107650580    2.21483295979901   10.96294424116341
In        9.07376965765961    1.76471853666680    2.40827834638273
In        8.49188079015799   -0.15270751742000    6.59844623394399
In        6.99242746297007    2.71561441948158    5.31172045205047
P         7.90332824629099    2.03536954161004    7.52141942478007
P         8.16841406380758    3.78645773129317    3.40448773648618
P         9.79420023291477    4.94055040062690    6.57384169414169
P         9.56880213293516    0.76569390660132    4.59107748606186
In        4.21147328536029    0.49795693510545   11.53985115890173
In        8.69797143305847    4.02901925235879   10.50271498115414
In        7.83138246601792   -0.40548271460395   10.78505831550753
In        7.05045287390082    2.29348282422574   13.13639526596261
P         7.48618023066712   -0.12220900529779   13.17467438392695
P         8.35117465112185    4.35645223224365   12.88765158059962
P         9.16823983937180    1.60848162072044   10.21774331339389
In       10.50773136975077    2.85309774844251    5.54921505861299
P        12.90929788403198    2.46997804271456    5.59454144037844
In       11.34300261668293    0.99611512170726    9.22300363909675
In       12.28909735588921    4.81924750892078   10.08096113245594
In       10.20492808179522    1.61605137561843   12.50969019893962
P        11.64096337383181    3.53269011636486   11.99790443461336
