28
 energy: -1.738882406357 gnorm: 0.000080679825 xtb: 6.4.1 (afa7bdf)
In        4.49723898224392    2.54435799793263    4.59669153571904
In        4.98887370033707    7.07345970194198    4.28780487812358
P         5.58065493601544    4.71614967611653    4.22675197225408
P         5.76452442040679    0.47357402572635    4.58094773004658
P         5.66547127744286    3.53695291728120   10.35167550962241
P         6.27454445137450   -0.37233219514512   10.78248564338236
In        6.62984693147287    0.16260111094015    2.33126451949925
In        8.17684166623406    2.72756322623158    4.21988610642975
In        8.86366694935561    6.47591908650782    3.96601443438883
In        6.28947990845410    4.40188864183119    1.87335106647815
P         7.64188524281327    2.33669467364380    1.83921215106234
P         7.97007744592659    6.17087899978751    1.74511153072817
P         9.69096383955170    4.48600852686975    5.18331827635698
P         9.18705540393921    0.54423418951164    4.81687408303034
In        6.56306387642891   -0.45398291612962    8.40552036021854
In        8.77567620260399    2.11160075988955    9.48377794815952
In        8.43513381681201    5.94900856911363    8.99563765811156
In        6.00851301625915    3.37633829814351    7.96301640500418
P         7.57416477523738    1.53479613676089    7.37712003228942
P         7.22779422479062    5.28354382756349    6.99768540820094
P         9.86917433982555    4.26399745168703   10.02861107317853
P        10.09088316589687    0.10684777026648   10.01510217178669
In       10.48309239982146   -0.18993325357764    2.93143986204353
In       11.61693108415814    3.95099805609130    3.74285937764997
In       11.47114650127807    0.36646567507852    8.03959998395829
In       11.60989309241187    4.10253941850651    8.28617906997357
P        10.67616758244552    2.34121545469787    6.81418677170742
P        11.71134576638547    6.21941417274414    7.08643444059231
