436
 energy: -29.931015450288 gnorm: 0.000513732089 xtb: 6.4.1 (afa7bdf)
P         6.19569218660941    6.28734258325966   15.50501683450891
In        3.49271574613264    4.26933081959359   19.37983467228371
In        2.23696597170929    5.18930325633573   22.82565907966761
P         2.89375457177278    2.88089807740468   22.89703769557082
P         3.43186538364248    6.21420562455709   20.90642411246796
P         5.82605219293174    5.24198479105360   23.70901333010907
P         4.88017069643091    2.42612648128259   20.21745179864485
In        5.17560522365867    3.85077668242282   28.84533737573640
P         4.42723923964913    6.17564721251507   28.68313433093664
P         7.62983157886441    5.62492687541991   31.10613536458397
P         7.28025629680159    2.77991434630669   28.21509064815383
In        4.23549978203176    9.65507601326964   11.29648662096047
In        4.72542746049592    8.06913426610553   14.67485489208901
In        1.90281329705953   10.41536189330581   15.07254736765034
P         3.71944822259173    9.50022144171690   16.40433457458605
P         3.17115174028717   11.05115910319450   13.04252902310545
P         6.83056406484922   10.25912374052082   15.72949465582661
P         6.02455163197776    8.55891088414052   12.60040017280281
In        2.30593778162122    8.08932246360559   19.81548538934414
In        5.41412877840639   10.91376507720526   19.66870128315133
In        5.18041135746748    7.22803189638930   22.39059405833986
In        2.65251111968848   10.89960218933472   22.64513494604310
P         4.00586966510198    9.08853639738503   23.50370674969442
P         3.46310274673229   12.10932233678159   20.63909757908996
P         6.25197229994447   11.72305754417698   23.09439003691388
P         6.13491916933253    8.74742736254457   20.63984739400860
In        3.34515969186773    7.00968689160829   26.68701153693840
In        5.51732220866555   10.17023156156489   26.49875804772082
In        6.26827412118224    7.30810261334957   29.92341253147597
In        3.49305799708793    9.97678614002383   29.75413212642436
P         4.99981490977487    8.90630474444404   31.31905539694025
P         4.07285781352417   11.57140898265742   27.95118329654044
P         6.25565415113029   11.98699591571539   31.08634587243920
P         6.90196857014776    8.66549928511621   27.90397206728787
P         3.14449779244809   16.58466144197921    8.07626527375334
In        1.62072846890197   12.52467871718715   11.84448276616109
In        4.50277834579796   14.86080851337381   11.52346989027647
In        5.32591891338818   11.55278337807450   14.25056057694930
In        2.84309182671924   14.80284889734967   15.03264822216468
P         4.24816636058447   13.03226083830254   15.90470272422405
P         3.52440830745891   16.37068235117217   13.24044087429871
P         5.83693047010389   16.56448073725123   16.15105297600187
P         6.08928173312324   13.26552840361872   12.58202713654513
In        1.70994641571144   12.25577479035699   18.94216236123875
In        4.69263089411519   14.68780048870142   18.79320583036630
In        4.99510316666188   13.54104663248178   22.01969135051643
In        1.50034430066041   14.88107823597915   22.06014868950675
P         3.37302837495800   14.58839106612265   23.57335263981272
P         2.91187515848278   15.67863152199193   20.19566232618229
P         6.29347537679426   16.22546236129345   23.38093125075128
P         6.61800025874995   14.35538976716036   20.29150587493514
In        2.28494218997939   12.72841888805125   26.74979275699701
In        3.99342981053434   16.91833650270706   26.37692477766089
In        4.97008920613283   13.35505061444192   29.48028402778640
In        1.91620145625649   16.03428078727890   29.48730691882768
P         3.37948696099739   14.66601747951717   30.84215337726839
P         2.11071133069446   17.78096802657376   27.74405213663821
P         4.51990737751415   18.16308814512056   30.97400408015917
P         5.06640959766216   15.12346004116690   27.70181986625960
In        1.69817528829414   17.70470697805992   12.29669610409073
In        3.91572704071315   21.55595268788284   11.33807808507912
In        4.69428585333708   18.12916892632096   14.60776950818249
In        1.78669570656656   21.11925189482339   14.57455909123224
P         2.87856647685408   19.32836043262548   15.77143812282769
P         2.42399912551951   22.74717980228446   12.86911368015988
P         4.72798971415736   22.59399416668012   15.79782347214669
P         4.94808260540902   19.86297244082961   12.80634646792710
In        1.86413412765367   17.57391853651745   19.05947423402957
In        4.68784009071490   20.26329064948846   18.60559370528358
In        4.74915564689369   16.78801826450086   21.52877846701780
In        2.58521495743042   20.33872941652743   21.93785617135617
P         3.07422522322252   18.11290671425502   22.75309537457720
P         3.83612268510224   21.79380616269227   20.36084333265289
P         5.78156960849321   21.47601513684771   23.55556240625496
P         5.67484932914368   18.32501156179624   19.78008844901806
In        0.29825458217398   17.81062361843214   26.10061859913032
In        3.15581917109827   20.40186518323416   25.89561682460545
In        3.35220780310982   19.40416803560356   29.19385970564317
In        0.07600265524539   20.80229931204272   28.91494970007249
P         1.74936808277373   20.58912185524834   30.66190638573145
P         1.79459353402014   21.78110527446272   27.43559543112559
P         5.30919138615393   21.68083752622502   30.49951096195785
P         5.05482571401296   19.97391377962451   27.43695938036185
In        4.02078280587560   24.21655842780446   14.08852585743768
P         3.63051601871387   26.16208141548159   15.52322514105881
P         6.22609753839644   24.37088102386547   12.94106999445068
In        2.28955755841855   23.20502351205165   19.07947555586049
In        4.20558729617935   26.68239132733004   19.54072134707445
In        4.89651583084773   23.27069169734567   22.09798747556561
P         2.84941071960863   24.20122043450251   23.04957268002702
P         4.67020111787093   27.45602320210843   23.29805187362737
P         5.74287520042634   25.03850567013563   20.51937213872155
In        1.17605989551158   23.99470229874307   26.58105316967857
In        5.21268004394485   25.35373948383589   26.54038369853221
In        3.75023136757609   22.54875911760850   28.80778134891791
P         5.21306824385092   22.94108318675276   26.84045355286998
In       11.04682441168254    5.34510745115028   10.73831817929709
In       10.56477998785209    3.03530536956846   13.61152893142673
In        7.64218166177572    5.19731193511481   13.85317047446065
P         9.09387893563405    3.89755801586461   15.35173286466553
P         9.28654473909863    6.19658685364470   12.26908309702493
P        12.28177202207619    5.08911307091873   15.84638958068497
P        12.40416698704309    3.96970887352935   12.26489046635528
In        6.39541343849436    1.88414184748813   18.39730432810780
In        9.05316436596630    4.46820223563944   19.15040408520632
In       10.50073803423380    1.59100019830549   21.38348928655451
In        6.28577031230392    3.64341796399956   21.88254263408825
P         8.31727544022934    2.28489138416989   22.15099351319890
P         6.91727894449531    5.29301624129082   20.11745332618824
P        10.13008202078684    5.05701043586171   22.67711678661406
P        11.11511298863684    3.14523868332156   19.55429782653428
In        7.30841273284640    2.38023798273498   25.83147908670424
In       10.40559160111859    4.48093752214336   26.17441590400598
In        8.83578300157755    4.05545666726636   29.65891640783050
P         9.21338267257135    5.78347034704431   27.91180130411965
P        11.13417940323756    6.22624003543726   30.99799709490282
P        11.41953183896044    2.89987487583116   27.77946603030172
P         8.91191738981057   10.47355668690109    7.57610069912426
In        7.59344821568985    7.49156084298568   10.99571821455934
In       10.61703611548772    9.14006985113079   10.96295912673506
In       11.03606253466448    6.30926158783926   14.07977151573013
In        8.03132084358707    8.83010030969279   14.08960746667639
P         9.43958253526110    7.44914821923249   15.58194106690834
P         8.90769141766022   10.35568035255402   12.29258094724408
P        10.02649521150389   10.82894976202850   15.66264671308697
P        12.15694171816846    7.87976027462880   12.46548350820894
In        5.83633306657462    7.09295894333076   18.82620143865860
In        8.53829108079922    9.12965456413352   18.52751346658254
In        8.27637416205150    6.45766702791862   21.88278116080270
In        7.60063761979952    9.80486539288241   22.37001122096009
P         8.18497111766839    7.93407419662526   23.86992239759645
P         8.89481070542536   10.67633572741146   20.41944804077441
P        10.98625599587944   10.01511376913682   23.59339405353774
P         9.62476894636876    7.53655605997727   20.08275286036245
In        7.10869681493048    6.44885704334349   26.80416625344247
In        8.86915616481366   10.93564157886343   26.22025234203440
In        9.76332918762808    7.63534638372864   29.49801135604895
In        7.44718618503873   10.55565417120940   29.46109145113934
P         8.69597275254652    9.18614666327940   31.10607616088019
P         7.58521376542529   12.39709726172952   27.75111829269007
P         9.74566768226820   12.56500060800903   30.98353315765602
P        10.05877261459098    9.35132754104140   27.69928794783240
In        9.54741136924220   10.59586114404364   34.53041348483949
P         5.98722850989948   13.52652163194317    7.71257419703927
P        10.01465310998398   15.08296645338650    7.42649325863045
In        7.32022050607711   11.78655643310915   11.01740293329200
In        7.86853734683162   15.43603001270344   10.82449350958477
In        8.82140191740094   12.21142564279036   14.00100320531971
In        6.53642795334653   15.04740816563304   14.31021109503778
P         7.81677676788670   13.55801803832969   15.81342486332799
P         6.86077362505253   16.85477951799004   12.59828573274298
P         9.35572643769352   16.62082879662637   15.71518867107598
P         9.22987351705961   14.07108575020919   12.36928413341944
In        8.16276332241374   12.73091932632347   19.24044311285020
In       10.46128089248487   14.97008012497728   18.61737026469652
In       10.33896226198789   11.84042645803053   22.07676077666902
In        8.12977533636651   15.17617069513756   22.10012660794073
P         9.06128990066379   13.38342070250917   23.49079054455117
P         9.46473548989485   16.39901099047937   20.37076950641041
P        11.09696854074357   16.17315478631582   23.82321800065722
P        11.25812608073324   13.22617308091165   20.20346138393001
In        6.04270282745816   13.47844204256798   26.13793158215686
In        8.61616460051085   15.60478400353610   26.30464651184046
In        8.36974638864086   13.99588536492038   29.51630687397653
In        5.82384791783485   16.71600177940960   29.46997949911921
P         7.10693688567042   15.38992331764069   31.11427593253786
P         7.43291664571432   17.31699479295118   27.64433882435728
P        10.62394865505714   16.07912664889507   30.99534657590208
P        10.18889906043971   14.52237020062941   27.89027970709938
In        5.40805610109255   13.30723057094773   34.54551486172167
In        9.87779749401233   14.99082100312798   34.25043132060666
P        12.03273401138057   14.62516261835096   33.20765591324755
P         7.50658339884617   17.46146358230788    7.42386822012199
In        5.35325645334041   18.12263830600770   11.08959243307628
In        8.53801507750428   19.35796493036447   10.98688595496934
In        8.17040604860444   18.21619518191319   14.25271222846226
In        6.26549771245446   21.28721783165386   14.37863961499621
P         7.33187900188458   19.76503573096588   15.99747868470235
P         8.09083125509671   21.11864299973743   12.66463819403452
P        10.77497192321928   19.81866730809940   15.94078234244485
P         9.95029752835349   17.98567898385232   12.48920457965363
In        7.93938697022279   17.77264465354215   19.01412956292314
In        9.67483458951437   21.27312230832971   19.43502437820965
In       10.36068610570179   17.86175421081631   22.18394952212108
In        6.21248940586042   19.96478223962253   21.63457408490968
P         8.11365705087112   18.74967352764900   22.61933041187302
P         7.28065656013695   21.56442699440608   20.03389522950039
P         9.45289262744841   21.53540468404432   23.18270818904346
P        11.12040315969184   19.67498281993612   20.63444537134588
In        6.63950718684356   18.86484443340747   25.87781906253033
In        9.89227089229563   18.95203076794203   26.11640005095829
In        9.25842824133178   17.34606639664409   29.36138262714422
In        6.78049343274427   20.11531239652476   29.26529186317488
P         7.98395794807868   18.76217242645702   30.94714200309089
P         8.81590620337535   20.41743256829662   27.79724482193535
P        10.95350322193346   20.08525873538244   30.93722450105001
P        11.10414063792848   17.43155833460016   27.65784822928755
In        6.39354707013318   17.75633591027790   34.47029301061288
In        8.54006573956073   21.67012574727411   33.88045254229197
In        7.54191492243214   23.10649877366430   11.31297719904630
In        9.80960283560357   21.52225405062205   14.44408027320944
In        7.62896249869589   24.75141330301872   14.90900498233581
P         8.76681119343999   22.99853636219387   16.13339291597731
P        10.82826228794736   26.39575336275757   16.36004689603219
P        10.90238052151137   23.17468725746896   12.92966685624830
In        6.29884790626588   23.42079861935327   18.73028049191349
In        8.02931528916696   26.49281669399400   18.79881433079238
In        8.13621317457203   23.11534431419579   21.83266634906735
In        6.69929828309290   26.48267606111739   22.33380217139407
P         7.64694778104879   24.65347015573505   23.70508349395905
P         7.67976202626535   28.03027195362251   20.65985600687668
P         9.65325410094825   27.83332568722630   23.82221600103037
P         9.07879237653376   24.70604486301358   20.15041992652293
In        7.54115072624708   22.16146848024324   26.59179997065494
In        9.49023986995933   25.46974797354788   27.05435725396157
In        9.96454780650565   21.84801602312666   29.50660957923360
P         8.24711433138735   23.41197087584986   30.27184101995238
P        10.87702567966365   23.70484242131297   28.04950134496163
In       16.99608641023164    4.12020774088324   12.06341007912781
In       13.87880189297631    4.05849865283095   14.28023097351082
P        14.76521240629244    1.86611907410517   14.92591247499036
P        15.40508523702276    5.67792516646517   13.09518554823777
P        15.49024546834653    6.73232362160821   16.87119649115231
In       11.68550461256984    1.73141928073730   17.64899489235274
In       14.81203723650601    3.75788050534053   18.83717419547151
In       14.37563749930332    1.50734274729977   22.19723990973187
In       12.06495382915599    4.82042716738522   21.17109789826985
P        13.64142714092054    3.75257165035985   22.73209840873717
P        13.60887341927995    5.82350381084223   19.43395665810695
P        16.50298153644698    5.12791586184975   22.43880348503293
P        15.78484588101213    1.98016442922106   20.22171818614948
In       12.04145662212921    1.07230010143709   26.28860260206556
In       13.84980518172457    4.57518662107439   26.29534611551427
In       12.13523027317652    4.67789208009736   29.36866397606585
P        12.65233362430098    6.33384929643422   27.58251707001513
P        14.53765305564353    6.82470804068175   30.78363788984534
P        14.83391503563815    3.24557161817678   28.09863454022691
P        12.52662980229364    8.16695134120196    7.64246476678019
P        16.32412072195592    9.84794821871167    8.24169855091126
In       14.12782597212343    6.89214779929473   11.32527280569426
In       14.05136126665372   10.36251166095870   11.41992552926536
In       14.59269382592904    7.46016828278082   14.68612541092605
In       11.57681354141241    9.71033704645436   14.09423071561799
P        12.84396969375758    8.68776162146805   15.92996829299259
P        12.21443200524556   11.58266846890629   12.56677293422641
P        14.93690511420901   11.28076067776201   16.26844889986192
P        15.40656962662339    9.31498059074560   13.20908432962139
In       11.53215896955036    6.91266697353874   18.62895258623482
In       14.28210383695540    9.19266700446054   19.13268549238835
In       14.93444945484975    6.71190034812416   21.38213973094591
In       11.23036115677555    8.22430901618543   21.90134624629161
P        13.15973932347736    7.17164414024464   23.04743484351344
P        12.06716141665106    9.75063036831624   20.10508244947679
P        15.25367722719756    9.80972781136595   22.74228397262539
P        16.35982356316950    7.99503864712781   19.71918801067712
In       11.17099424485120    7.73224390922205   26.18230095901448
In       13.67918661961507   10.01101282441432   25.90702726792621
In       13.24497914337918    8.18843839228147   29.17728880517108
In       10.83243060378858   11.11740466947068   29.30576518992772
P        12.14180826205707    9.67082791718421   30.82152329575932
P        12.54261095052648   11.49495260137294   27.52112238462263
P        15.72700655477771   10.05454611255973   30.65646406365527
P        14.98524427381412    8.55220848307776   27.41591520456124
In       13.83901213688212    8.78734205818616   34.21061503530051
In       11.78710949839063   13.47247154980729    7.41482714651347
P        13.63395266368338   11.98823223849348    7.76648516550821
P        14.91883250119680   16.12064754692221    8.12022006128337
In       10.78345005075864   12.76750814223613   10.93848677394608
In       14.13807816925310   13.84966256758437   11.19791490913298
In       13.64932780968986   12.37429331935293   14.47198471063859
In       10.59397077013915   15.17383560471395   14.14937348483114
P        11.83601925026791   13.60926522544328   15.58810105115891
P        12.52693658618725   15.15671669279724   12.55062073519188
P        15.69333452871535   14.73768507437578   16.10876750977280
P        15.56981068185355   12.79964819246729   12.93014557477253
In       11.44088114914044   11.47870732013791   18.46079757768584
In       13.65609811645875   14.57414801926808   18.66497837726078
In       13.44072502771071   11.10828854663355   21.71792214880327
In       12.01733613287648   14.73519181349862   22.04435168415610
P        13.07732034144904   12.91918862773460   23.36161791937358
P        12.93240768049323   16.29027771882555   20.30890436834102
P        14.77073102663941   15.78364282285805   23.39937238302973
P        14.37310929250793   12.56080905905394   19.92110453392931
In       11.47968382846497   13.27722006219054   26.19369842964227
In       14.92377785662145   13.25402045656481   26.15057155189272
In       14.40367244763242   11.52190497467197   29.17940828721711
In       12.07207513569056   14.65727423049013   29.53390144412229
P        13.31940047130319   12.97350530373081   30.86217143226220
P        14.01642798414768   14.71199363119845   27.93126348197400
P        16.53694261855570   14.05040334434599   30.80300526595727
P        16.17410671895660   11.49786298738461   27.39177315108252
In       13.36186780988266   13.37037011341341   34.78116214924573
In       16.27212626649349   16.58792661106830   34.05617358396041
P        11.61846462055182   18.89879746689431    7.97183477627826
In       11.14245853704612   16.44885960979470   10.95976890563212
In       14.28302660155203   18.52846065690087   11.26145699380713
In       14.31090193135236   15.60457284211686   14.25070826688459
In       11.76088086833112   18.41675304122767   14.16068335977912
P        12.94672475012405   16.97820697395585   15.77163652980550
P        12.80348942458383   20.02109273134974   12.54731665732527
P        14.57157905559223   19.89686769664718   15.85930509269039
P        15.62074865049771   16.99024544131829   12.63666223468696
In       11.93489378618087   18.09398573100135   18.92337514525726
In       13.60140331143191   21.14899366690574   19.16423446782616
In       13.75856874388425   17.70219722051207   22.20645127511994
In       11.79884918002181   21.04739191033521   22.60807340674494
P        12.77444524388831   19.18928272729048   23.92564695472097
P        12.82089867613160   22.65282382857258   20.97290105287591
P        14.45867846977424   22.26107508998521   24.33783551509247
P        14.59712859794630   19.30042360294859   20.47979564394174
In       13.19920907170460   16.63123600777678   26.60389913866567
In       14.83354157430686   19.61712993649249   26.93076421036914
In       15.47582628703999   15.90236171334722   29.56760500395272
In       12.31746097579006   18.59856179452141   29.51743390963942
P        13.87324269110521   17.24458853366759   30.86640610621092
P        12.54575788033549   20.26582416019432   27.64133665834980
P        15.08517354433195   20.43764927656941   30.41741933879731
P        16.07734982499376   17.75207553307004   27.98794330288593
In       12.28235302468967   18.81248818337590   34.31967947078281
In       11.57794970449223   21.63517202378709   11.14323774119182
In       13.33049048404094   21.53077950900077   14.48981415397802
In       11.54147157555147   24.63980630030368   14.82379815135580
P        12.35503783440107   22.88124575027131   16.32044284879362
P        14.68983980659871   26.61345004952861   16.38715196991969
P        14.12377488160731   23.39812012617571   13.03433339106762
In       11.47288840543798   24.26082970062581   19.65888030895209
In       13.30930778756058   27.42024325838972   19.94408397932504
In       13.56754291756646   24.08173173665693   22.89676000432296
In        9.99086206162225   26.17861819876542   22.01015327584667
P        11.15406279933740   24.44118003674505   23.32414824998591
P        10.91706346494023   27.67512694062413   20.27095121951511
P        12.90155276429524   27.60190174636518   23.60628555177031
P        14.53931593464422   25.70480313011083   21.23819426206586
In       11.35633355570582   21.99263120306319   26.32013526512335
In       13.41992843256180   25.67797469075750   26.89676005126847
In       13.29573737288773   21.84105082625007   29.46272269704795
In       11.64381897778525   24.88206029375630   30.11870334900105
P        12.44928492277571   23.01016976040187   31.47560229441709
P        12.65704557522626   26.76578337186648   28.91951119915251
P        13.98697537832698   23.41892462009754   27.67110307255950
In       17.13877337489943    5.20683888147660   15.88320767326150
P        17.94719226097120    3.12508271174664   16.85735040706156
P        17.94731895866024    6.95426614729232   14.33000633212909
P        20.71828044675765    5.91884831610880   16.89348080972484
In       16.81872223141824    0.09606967419571   19.07072742804831
In       20.89658201366800    2.54000508022448   19.43089574784732
In       17.58533416448202    3.09869357455713   21.57195047948984
P        18.47610613205184    1.19106570556825   22.80580246086245
P        19.16360372353088    4.17482264254623   19.94359750730016
P        20.98421173431482    3.82781822524097   23.56331493589684
In       17.75417777926636    3.65960289082757   25.91437762879074
In       15.59164504267381    5.33467747115150   29.15603235857609
P        17.22772692968242    5.61211832051259   27.29060582484021
In       17.33988055681257    8.09343813617170   12.22159361936383
In       20.58417916965282    9.50297372593354   12.53103171921487
In       19.75742787989421    7.88197609172837   15.77254623508225
In       16.78637948957437   10.06113988482209   15.18055007858300
P        18.07229836603043    9.12820686046638   17.08629708454268
P        18.70380388270015   10.64525503910791   13.67452462947550
P        21.90401577095709   11.17962710772028   17.33761710958401
P        21.73546914937310    8.62362722604712   14.48636447672795
In       18.04676974586758    6.26127177390504   19.29734628531028
In       20.66824401223472    8.97327346524092   19.90289130117514
In       20.10984148691659    5.42008821776421   21.92725444845063
In       17.37611115136991    9.13764903852289   21.70719517762272
P        18.77544167031330    7.36022493108297   22.67724863669306
P        18.74643730833034   10.51340943891133   20.08883682868193
P        20.66346755143886   10.54833933860549   23.35300079068465
P        21.57344438493927    6.81244522670122   20.50639615437195
In       16.07055012124749    7.11950929367570   25.71729369742274
In       20.17802879333431    7.31208046169470   25.97541781779484
In       19.01698148418090    5.57855812194276   29.03175893315008
In       16.89426302713775    8.59375122827948   29.03056720310207
P        18.13557888074881    7.19539523859131   30.63715761071164
P        18.59361690078983    8.76988579208809   27.18758094852210
P        21.92550258418176    8.26561922670413   29.65852951020423
P        20.87030667741993    5.50871382408841   27.43037784486285
In       17.40371326184492   11.58532733044916   11.77694733234140
In       20.67606645544284   13.31369704506161   11.96832568281048
In       20.26118397535357   11.36968007788311   15.51687943785373
In       17.22011734826786   13.38882935181592   14.72876777752490
P        18.45033551374190   12.56189620860933   16.69730971327476
P        18.79415263660559   14.42596468695289   13.09848185048255
P        21.21311087921158   15.05015592620454   16.71098171610555
P        21.81019154927866   12.42048079889483   13.90674866271494
In       16.68070831976313   11.75602395622452   19.50251605280704
In       18.56831459272785   15.14781507024786   19.36929043273806
In       19.26554993537513   12.05390330001283   22.02041121549758
In       15.36666028549021   14.17926976584028   21.60377056522579
P        16.98565571739309   12.69531451208996   22.72443871638314
P        16.30028387907917   15.87629453064277   20.02129602772936
P        18.74791173075768   15.91713875558188   23.08621600907862
P        20.08793170230901   13.41826385470976   20.12055114810982
In       17.64868410142228   10.48847548449863   25.69420370834057
In       19.97152573828026   13.57447952098472   26.27334789998817
In       20.24075665985396    9.80164490436508   28.77576105274638
In       17.60106286415066   12.56078271692625   29.15744132693361
P        18.95546520974865   10.99036764931854   30.49921164624435
P        17.85595279122549   14.27752638066656   27.33483581577152
P        20.45760760985812   14.36574888333156   30.18915349963306
P        20.95938806683496   11.60305668000689   27.25931732514751
In       17.41871850657310   11.78996077534201   34.02149036451505
In       17.37762965273460   15.67998026953979   11.52491709446669
In       18.93393323883306   19.05173809161393   12.23305104164603
In       19.69065366406692   15.84582868241017   14.96488818212420
In       16.12762237034809   18.47109623915517   14.59821250442475
P        17.81788570735581   17.18016599669352   15.83567895868574
P        17.01764282538965   20.30725171765405   13.14050090431874
P        18.14849206991835   20.21791116983085   17.25841858139307
P        20.45172460510069   17.50836689646100   13.31071153287913
In       15.29360633966204   17.71376916373836   18.70185090626186
In       18.47623126967880   21.14522210109707   20.69438261271016
In       17.18593181786154   17.36658682253468   21.88233601205407
In       15.10108695893933   20.80952606779418   22.43840232071454
P        16.44400268635500   19.05187174945173   23.53175811243896
P        16.29553396510660   22.30258044304688   20.84486914175928
P        18.21193307763603   22.34743048993292   24.19640873321722
P        18.09322359584978   18.81026232980444   20.08507650461183
In       16.67909984695914   16.14280601653158   26.21288398690535
In       18.95255816059668   19.12295591205692   26.19062511363727
In       18.82269619376141   15.81984851339796   29.08819268420412
In       17.14305517595708   19.49524358197612   29.44840008078664
P        18.13576210382490   17.58699584389807   30.67678246017750
P        17.71492394424082   20.84983557346209   27.41774758554811
P        19.83532161288804   17.15414412282978   27.27806777375902
In       15.81096393272977   22.04115076930523   11.87693998425377
In       17.89259860870331   21.43017707266114   15.17893537130589
In       15.00327037395185   24.66646234260996   14.96749942712060
P        16.10815193926276   22.81861668437157   16.11768210915973
In       15.26392349646864   24.09770722636575   19.49473972878498
In       18.81800159214376   24.63948137285162   18.72010737732002
In       16.99012190587500   23.86530073102723   22.70857263750605
In       15.23882747496681   27.16070448777377   23.14469349708906
P        16.21043764732691   25.37749643564256   24.50492010375674
P        18.12825369391605   25.17858052287707   20.95292756619505
In       16.39497751078088   22.91500074114481   27.59836934021045
