16
 energy: -0.971231708256 gnorm: 0.000473735063 xtb: 6.4.1 (afa7bdf)
In        3.30289012096725    3.30447433189013    2.24097207175473
P         1.77753501055099    4.84966813915549    3.30365481937664
P         4.60521901242234    4.60556630239615    6.22198479247463
P         4.84971780197744    1.77922968582677    3.30247255430643
In        2.61421349058266    8.45364725087171    2.08246466855940
In        3.03939656675805    6.07399607011450    5.02801420919637
P         2.00690162037963    7.86900393995664    6.32427411152921
P         4.38606926803311    7.38777976862914    3.37456573606924
In        8.45480543368697    2.61307425498265    2.08300531426686
In        6.07387988737103    3.04011153648524    5.02815058289476
P         7.86882893259985    2.00703871553112    6.32357315378864
P         7.38920354523237    4.38657306967200    3.37414510489889
In        5.89978980226273    5.89933875312349    2.13475806160497
In        8.47134845698074    5.67680798498060    5.17517095935105
In        5.67641954511869    8.47010906092454    5.17487996983682
P         6.97800150507617    6.97780113546011    6.56823389009160
