18
 energy: -1.124700533098 gnorm: 0.000425586299 xtb: 6.4.1 (afa7bdf)
P         7.02881891959598    4.11411864751442    4.44014709204309
In        7.62109606226939    0.10454674518207    1.73124888977289
In        9.88541208681616    1.96369140222433    4.14218673162467
In        9.85007507702682    6.59632778882347    4.11006758766831
In        8.05563085985711    4.25373940343702    2.24844680585604
P         9.09378834912522    2.03972387312295    1.78884642978726
P         8.99296160739051    6.48818367049991    1.83057558892974
P        10.69983468339906    4.29775962708769    4.36342001306977
P        10.84517379880134   -0.29842695329701    4.26034649939627
In       11.66634976383618   -0.43592022559916    1.98069713896403
In       13.20620218642739    2.07397627654732    4.15855705637218
In       13.47092532938315    6.51708976790011    4.18863053145636
In       11.49666050576045    4.30596116414967    2.01571365443660
P        12.25964659821408    1.94599399143601    1.86554098909593
P        12.46272865585735    6.56923974448823    1.98039183657394
P        14.36476797292019    4.25161914236462    3.89771198593222
P        14.72750830511993    0.18027158023632    4.26995927093959
In       15.31205673819525    4.00066435387094    1.68169189809132
