262
 energy: -18.205677777107 gnorm: 0.000489786150 xtb: 6.4.1 (afa7bdf)
In        3.82222902285980    5.09347524852070   12.80549284478869
In        5.31462934069650    2.14127662610845   13.46498438351579
In        2.36163675604673    3.30408548625046   15.78108037522401
P         4.75341158299917    2.91485151476507   15.70590586218209
P         2.31933627840225    5.53743280147235   14.72837479199146
P         5.90183329346285    5.78567391623740   16.56731379890152
P         6.15486158427560    4.29790512000610   12.58624220241712
In       -0.51792617945567    2.91801867316078   18.89506147469179
In        2.91940229815461    5.50511387814526   19.19436943136809
In        3.36372161989528    2.59765638261821   21.68334381337760
In        0.29878711032966    5.60674561537994   22.29348742307274
P         2.05341990420170    4.11477617456100   23.03788212247773
P         1.31283607522202    6.90581426427315   20.44164147375185
P         4.54922070326026    6.35222438299516   22.76763667376865
P         4.49003843795492    3.67772050910410   19.75083690689017
In        4.77400797809622    3.28963102593697   25.42847643237659
In        2.89451008631570    3.02414194246307   28.76777992897905
P         3.79453194223836    4.70455065469549   27.20492153827559
P         5.93661853962402    4.29337717941775   30.25752351952817
P         5.78152021539518    1.37366279778013   26.58130211882694
In        0.04833374556968    6.41628799228069   14.80368922344142
In        2.71633661913211    8.62430511154588   12.56983101429658
In        3.96328674972895    7.09821880671128   15.79577343900188
In        0.92175373920132   10.04303624486640   16.11750620361989
P         2.61655976613407    8.65486166943217   17.16316924244654
P         1.90574234326217   10.53047568988175   13.90952857201966
P         5.59686205045726   10.31816464505180   16.38442691940746
P         4.85203075511674    8.01483300408120   13.64646859802964
In       -0.57075932702761    7.80955203445734   19.18092270270448
In        1.97667056701353   10.78268113657987   19.73604252451593
In        2.85073561747202    7.99605371235185   22.10902964687772
In       -0.41993584307816    9.72453614770003   22.73852828571993
P         1.36149312270086    8.63797597782796   23.95794807068683
P         0.39094143886761   11.65281689385253   21.42323986000704
P         3.85559201771467   11.11521942942705   24.09558418314250
P         3.97631387570740    9.54892626877433   20.50140230202303
In        1.72632553017654    5.80617510330231   26.47914394826501
In        4.27593884898253    8.58138197800859   26.48194251687081
In        5.33796081543961    6.07732353654523   28.63039687383984
In        1.75873139407113    8.84972074380411   29.26861324453755
P         3.74749638263573    7.56476224056230   29.78640708157166
P         2.48907297565910   10.11005331959870   27.25142282086427
P         5.53800468909259   10.46932528674024   29.90182857835303
P         6.51324730260326    7.67341444084076   27.03988933103408
In        0.37545198887048   11.79331826135993   12.49004542546483
In        3.09399163543755   14.43979077285051   11.38683271888777
In        4.01869979413388   11.46881359515451   14.89073468056629
In        1.49746068725989   14.40407745574563   15.27860211692369
P         3.06126502006395   13.04770766170346   16.52661030979397
P         2.02843705819567   15.63682621466172   13.23468342268710
P         4.33600734257741   16.51248908833573   15.87482759693344
P         4.32832496670035   12.87799904752087   12.84512585546044
In       -1.35322665652072   13.22487684986841   20.75980044046149
In        2.15238792819181   14.14639684228312   19.83609890974640
In        2.26726088582389   12.52471731481327   22.84176111824420
In        0.53973478887994   16.72816504953726   22.29708565956409
P         1.20003734430767   14.67706616905510   23.40162344524429
P         2.27253202839203   16.52506597294786   20.53732926514781
P         4.52993898616338   15.03932065566881   24.15679982455278
P         3.95614138005500   12.93610340716241   21.03072658833174
In        0.50716151667305   11.31318085737686   26.46447723957731
In        2.40894033027424   14.54581299403998   26.62819356137089
In        3.74218432615029   11.69857966893249   28.75824742032202
In        1.91960220915697   15.75977153280928   29.64011009103477
P         2.48577725030258   13.41681591509858   30.01114823151959
P         2.85164534236017   16.81584241272243   27.56794327585834
P         5.09686484514620   16.30832335081355   30.49081884988103
P         4.44052684480594   13.11901662669249   26.78213080327808
In        3.12380891811992   17.70206685281801   14.09336069023298
P         1.48156294920172   19.34551004939124   14.86270134637270
P         4.72333175610184   20.45057950953258   16.15038255599910
P         4.60538915415090   18.59442515822668   12.30791387185886
In        1.45298265554313   17.53245326462853   18.46279525894277
In        5.05220870535537   18.86630999257104   19.10463141624634
In        4.10193939210502   16.60322403006524   22.26791310378523
In        2.49857043387461   20.53441632305084   21.19628363483941
P         3.40548958051671   18.92318199658190   22.75958536632213
P         3.44055541652427   20.69613267114235   18.96074225560697
P         6.14773767855340   21.15298835000445   22.17283956788247
P         5.96580837628612   17.23177391532461   20.72495539847591
In        1.52134128130350   18.40604683278062   26.25957844320908
In        4.18080506026810   21.87185541161132   26.62145100547101
In        4.32010783760157   18.17082904299432   29.07821849613972
P         5.32083421213242   19.92671519380530   27.59050342190877
In        9.52232949610683    5.69398821010678   11.01958125931593
In        8.62433606444720    1.61142317818412   13.64180535781917
In        7.31314563555251    5.11573116075555   14.64029046350648
P         7.97538136049664    2.91808665425176   15.59005512942049
P         8.48419446399862    6.68591967521232   13.04635350369100
P        10.33298197620571    5.31781307713859   16.14782694946609
P         9.11381842480530    3.59441997932543   12.25005948871831
In        5.89222249233296    1.84512369210323   18.92347078321106
In        8.75945643959474    4.45617626692558   19.14809218457530
In        8.93801600926351    1.71189470466773   21.62102436131844
In        5.98172738399885    5.07013304446334   21.23122169730267
P         7.29275108008620    3.32389612899920   22.36313899033976
P         7.19737025057286    6.35976484709072   19.42439735355198
P         9.64749481278404    5.57569943058715   23.01332914645088
P        10.50172533657428    3.07833259223171   20.26131955526751
In        7.75783687813334    0.59438763213687   25.41990978967414
In        9.87493349940666    3.76900415789736   26.29264059074382
In       10.87825066757159    1.02227908697391   28.04719787018800
In        6.61611637556687    2.57437940859917   28.60410380524151
P         8.70903701149113    1.35902537549226   29.07579564878103
P         7.53514668184656    4.24585146910355   26.99105850462577
P        10.18780241827303    4.13358306039552   29.96930060090653
P        12.10007470605598    2.96680851876119   27.06912231490665
In        6.47568352412304    7.52808008946741   11.83432691657985
In        9.33204071530389    9.82698313238476   12.18158734066019
In        9.97413647055147    7.43809943176793   14.90611382546771
In        6.86591712274353    8.77267460988527   14.95305663051807
P         8.42334621938389    8.04122350785036   16.75116624689489
P         7.17346182435072   10.51208585387679   13.16925966660667
P         9.48642336727449   11.14942322152723   16.22564293727127
P        11.29357043984379    9.03409346871673   13.47362670761449
In        5.80655529971451    8.39348415502627   19.33067592855769
In        9.06112309641141    9.90310220401054   19.48581690346083
In        8.52926440779241    7.09668586063305   21.43433361436601
In        5.45687002029896   10.32954814575527   22.36881576562704
P         7.06779045778907    8.52120197928530   22.81206250058308
P         7.28078050804252   11.08601588685292   20.77215489117745
P        10.58450102457789    9.89551021672508   22.57868519542319
P        10.20598275277089    7.69210850449805   19.63540835673275
In        6.91554931660410    5.94785912787165   25.31431773368531
In        9.15169115821782    8.77320812349687   25.49491401736124
In        8.46328110987819    5.54599503885633   28.94578503371021
In        7.32611781300679    9.09027813308885   28.92199399968922
P         7.83474246027164    7.30668914388268   30.57914038573106
P         8.55112614881255   10.48627666660431   27.18418592769242
P         9.70075723716051   10.56785603199310   30.49621526833842
P         9.46824265232846    7.06869133550869   27.25888651659467
In        5.50297830179857   11.18497975383213   11.49172626268469
In        8.53298710633866   13.64186426030385   11.25527339555630
In        8.01696971041158   12.34044701112958   14.65215691881880
In        5.12734679506575   14.69783538510351   14.38379013207294
P         6.50110881708185   13.61478008887714   16.11920596439251
P         6.84136688042334   14.89381341949041   12.54759325300081
P         9.53902465608082   15.05195971413918   16.21875982086935
P         9.94578427256336   12.98228434590802   13.17678778344394
In        5.48668878819987   11.99726823560351   19.31312149232552
In        8.75592937690550   13.45610244076552   19.07641621645736
In        9.24512371943472   11.91529582330656   22.11619580815663
In        5.76579078679748   13.49947318921852   22.66653104481452
P         7.61806134050571   12.42689717681826   23.91098304899897
P         7.14324552843601   14.30538256508930   20.74490944750379
P        10.62636835710833   14.61833628618620   23.57643998972259
P        10.77774075726442   12.64639449483781   20.24442392450209
In        6.30443912367384   11.46726601502782   26.70001079065891
In        8.10807901074180   15.11735116439049   26.09673368606933
In        9.23630982668921   12.29732013966828   28.77371824840948
In        5.22582046113783   14.70704304273166   28.60035794275489
P         7.11154036944045   13.35780687399743   29.44976305583696
P         5.97105293158377   16.19563074986359   26.72671514513740
P         9.11979426074083   15.92180989412221   29.28096300870132
P         9.84887359826652   13.44267278935583   26.60487348473899
In        6.07303199526643   16.90491704428353   11.34185308261362
In        9.09486699325510   19.23910350380482   11.76830383994743
In        8.33835495564163   15.93499460670722   14.26792306739599
In        5.85111843877539   19.85933087794781   14.05100856860435
P         7.05147947157234   17.90878798203306   14.96071132807098
P         7.72717853489085   20.91903604987017   12.84478218932971
P         9.43531902714881   20.26977125212168   16.19470957055805
P         9.98472747191478   17.26012978890888   12.93344118466566
In        5.43768864445111   15.31703737933159   19.22711915263402
In        8.11631708086771   17.41985711374139   18.42309700811613
In        8.60782695587729   15.46686192677751   22.42532917678914
In        7.37486058159039   19.11325850233801   21.59665735167603
P         7.70326580060820   17.51871357571229   23.47009474431006
P         8.27912034123868   19.67829843602291   19.35118185538549
P        10.45430514329189   20.31243653681937   23.09670798288574
P         9.42466413543390   16.53645557279005   20.32416073340039
In        5.24748959484780   18.33122208658639   25.70087488356374
In        7.77904178699894   20.81364664097445   25.66702066423747
In        7.39013516360509   17.43657814289785   28.41085230236962
In        6.93267072035014   20.92726542922052   29.20841290896717
P         7.38806675735341   18.85725157626247   30.44077690380931
P         8.06190569805795   22.33836055975027   27.54745739794776
P         8.60641605800805   18.68192146648060   26.60318516676153
In       10.80724772652898    4.16965237398822   14.01105288773207
P        12.15449772121915    2.16254137941073   14.40113196337029
P        12.35240496212460    5.95228313115546   13.19682033606568
P        14.09350581138636    4.75046685240223   16.33111903970086
In       11.70945158640454    2.04466835311689   18.41045609576156
In       15.18255449512165    3.62802322072573   20.00556749991116
In       12.66706982090191    0.69323411027947   22.29135980806237
In       11.56426308536380    4.25908260125150   22.20709962009266
P        11.77716538122919    2.36887879373099   23.79372631567800
P        13.44814957101778    5.17282602911743   20.83090831714367
P        15.50102927974828    4.02980977124366   23.60208842913372
P        14.52734194641148    1.51624888432665   20.98784822026562
In       14.33770208468923    2.11362972410041   26.53889068650993
In       16.03753474297652    5.77013224180654   27.13757679601843
In       12.53954102698908    3.83844282905720   29.37801366260247
P        13.91483574969699    5.65954613060143   28.33461811439402
In       12.73877406825106    7.93741479208340   11.80920482710171
In       15.43035983607653   10.20922889968270   13.36581995227233
In       13.14536885485009    6.81266530896208   15.40407800092551
In       11.72598896110548   10.39939160388768   15.52753665871287
P        12.28388063832831    8.49830594397455   17.01042799106010
P        13.46177048516441   11.51517316651183   14.09485170975049
P        15.49758645341078   10.53966374089432   17.13759874759045
P        15.03133955265073    8.15908953704488   14.57794419150137
In       11.81084635521504    5.86166571007526   19.11078217201865
In       15.36623155174830    7.50274173191207   19.14071064589361
In       14.74968737977632    6.17924837529943   22.71581873021476
In       11.68419853446579    7.87259694111842   21.70168452004899
P        12.72476539013317    7.08701611150539   23.80668848347362
P        13.50748475405224    8.72812873629639   20.21634231996131
P        16.14918316588448    9.27494373098811   24.22086517242096
P        16.49653491745561    7.17504700028826   21.26500698414906
In       11.83453249278577    6.28398286174301   27.14035913850543
In       13.92571599447516    8.81936988587519   27.06291931296288
In       13.97144270403340    7.20207827389633   30.28151077893394
In       10.32427032155867    8.61971553975543   29.08412641019076
P        11.55121922596964    7.14783365968676   30.60785826029295
P        11.63377890571377    9.76283647599362   27.30810364729593
P        13.02183065681168   10.47707623623880   31.35225542866901
P        15.18134758375753    9.01137422710096   29.14037871721835
In       12.00638327396342   12.03556360214064   12.15908929899637
In       15.33013685833351   14.10671532250316   12.67154569623461
In       14.58946931877939   12.54781789316928   16.08344843500472
In       11.33309043941379   13.74434473105372   15.14006591402045
P        12.54025215321703   13.27600462218997   17.25733123220983
P        13.17149897161086   14.69117810167668   13.72991947711028
P        15.47384187114275   15.73809209661107   17.60878508115411
P        16.37840555942503   13.69024993127880   14.81823962392469
In       12.48506265983576   10.92517480142617   19.73828785933214
In       15.61595990538535   12.98133966849154   20.23227285224930
In       14.58126961940217    9.59228932031241   22.34733242361300
In       12.27049685536191   13.58314757747982   22.04704653076220
P        13.45354692995577   11.66969312118534   23.05100435274717
P        13.74180658413048   14.59465949173138   20.25160434706310
P        15.89784639911345   15.73169029138898   24.12844038513517
P        16.10673157948526   10.65768128052945   20.72197141801654
In       11.19413093229543   11.58270254065035   25.69387140404114
In       13.75574724642235   13.84879735657245   26.13179770642421
In       12.64276601354037   11.29033589529815   29.06604672211679
In       11.08702111921324   15.01226523775914   28.11766187290568
P        12.15300214002490   13.59666874894164   29.81594387753149
P        12.32191534668159   15.86839991926297   26.09362808672746
P        15.13869943694689   15.56944741795666   28.94069300964961
P        14.44734771431011   11.96719838664442   27.51428574874527
In       11.80620269680312   15.87279266312545   12.04399449778044
In       14.07186469513158   16.08387944389768   15.62445254322767
In       10.60609028054509   18.51575574770544   14.99361787384356
P        12.00312104821301   17.14040882091003   16.45263773999189
P        14.91838485189786   17.84098160063271   14.14948920405474
In       11.68239295012595   15.81407368807872   19.59593789265583
In       13.80451871907743   18.89701165639851   19.41563110212935
In       14.61782942838763   16.10360558929101   22.07273210214394
In       10.61382182381181   18.38547007613374   21.57166342641759
P        12.50026801871845   17.21465922592297   22.63225324185441
P        11.41071326524062   19.26345144717708   19.40046056806764
P        14.89945361948003   20.43849245680562   22.99877140770944
P        15.61708652184357   17.73247900833123   20.51155799059126
In       10.71128462308385   17.71099499180440   25.74103409273780
In       13.16034579834919   20.53612939620976   26.45384638070896
In       13.71580747610948   17.16126097444381   27.74377688199948
In        9.96590908827043   19.64977715651737   28.47977627500741
P        11.85563205898375   18.16886389998283   29.02273070675064
P        10.92980886472561   21.34059819650946   26.96883202083290
P        14.25822021063982   18.50244613550066   25.71965652922058
