96
 energy: -6.445762847802 gnorm: 0.000171505941 xtb: 6.4.1 (afa7bdf)
P        12.02320871248002    3.14819232774212    8.13697728259606
P        13.52586596221321    6.00648697543902   13.67777781844556
In       16.32894956722738    2.28110207899151    2.89808969822794
In       16.17917794606544   -1.39291889522583    3.15261010534508
In       12.68156244194458    1.59393042100331    2.66194294335091
P        14.01723175727330   -0.30736830948510    3.34316633533491
P        14.19051318685646    3.48780251805868    2.67959620240834
P        17.39174720955005    4.39295683723712    3.60679333907126
P        17.49369328001880    0.44784031277665    4.12701689870238
In       12.47422962010418   -1.12114053078047    6.62867454240744
In       15.66904992058660    5.06405907864292    8.02231886001885
In       14.91338813427336    0.43402605409036    8.91928618792987
In       13.71970457549216    2.52928493894753    6.51174667937381
P        14.53392713452426    0.17992710951690    6.49379263534138
P        15.04917158518156    4.44368376238585    5.72918108656291
P        18.07771227117111    5.49246498092744    7.79381316359975
P        15.59903353465278    2.80939353325105    9.10598333212094
In       11.41577981557989    3.12324653045629   12.34779067164717
In       18.16190190270396    4.08689901744530   12.57459338412846
In       15.02216643642913    2.81952079973749   12.93748994084213
In       14.03119949436541    5.55148822838125   11.34826368771726
P        13.47438293414771    3.13048762109401   11.01828387391984
P        16.47095067936255    5.56306185388908   11.58709576083308
P        19.76098872821007    4.07299308478517   10.70011668057891
P        17.27193925371524    1.93822068542735   13.53870572415698
In       18.64762345215265    4.70780839324894   17.96111419128827
In       15.84922087589672    3.02938032041551   18.34534529876694
In       15.79762817970181    6.57418127841547   16.75662208449929
P        14.97300763803090    4.30943779582389   16.45524570526235
P        17.01475958167019    6.31399177587103   18.83732011607579
P        17.87489913824000    3.67615426928753   15.83912438295326
P        18.21516210222563    2.33380005602000   18.59753935012181
In       19.28416026625936    0.42690846071700    2.41453076933789
In       22.33573956497561    3.41273944028772    1.45016991064268
In       20.93764499405543    1.25864376576729   -1.01237250887621
In       19.18240772219512    4.20734055105081    1.92401068242257
P        19.30007421250519    2.10410562924782    0.61737968591759
P        20.82183211530513    3.04809797151619    3.39932065800990
P        23.95827326256779    5.18935737273360    1.97789715240756
P        23.21418329228373    1.75611883266526   -0.19207746711102
In       17.24262498037064    2.29347481673031    7.32305131319336
In       23.28086724464931    3.40405978135821    6.60906876587792
In       20.36072616615528    0.99007256656529    6.85562138792514
In       20.03004141991794    4.49249081722864    6.67873498389245
P        18.94750456652020    2.56264706168891    5.52403980763626
P        21.67373492024181    3.89727461822131    8.42926156323902
P        25.66365231668325    2.64835057079528    6.59206408620542
P        22.32165128152435    1.44115838293437    5.40010289461454
In       17.04368239024055    0.07218575265237   11.91772429455721
In       22.91434731728499    1.13293081328436   10.67002344849482
In       21.17938092613232   -1.88939517380321   11.00321835256999
In       19.76082985707683    1.61250031697396   10.79584941601902
P        19.01425979595405   -0.75182429237718   10.67481679401278
P        21.34430649812010    0.89769227846857   12.58402786912734
P        23.28837392834034    3.54842775976522   10.99811661470871
P        23.37121306357458   -1.24331235748980   10.04078027402432
In       18.08891184479613    0.55675861288212   16.87753432871174
In       23.29931699568809    1.74360385247651   16.27363281965109
In       21.11452927171130   -1.02281593309354   15.86104458849123
In       20.19849840224461    2.89625483164460   15.39150364157483
P        19.50589722697163    0.55896979914473   14.83285731380739
P        21.16627923692142    2.04408621855394   17.48042743276784
P        24.79933155084124    3.53149893227070   17.10711711058427
P        23.13954300853364   -0.20128527510447   14.69154736811679
In       23.14161469668981    0.07748065137432    1.62132375644763
In       28.04513944907031    3.63342580824049    1.46352611670225
In       26.36740634607436    0.67276609133712    1.95753596217216
In       24.91877912341811    3.53725983680304    3.51540015877276
P        24.44694787519269    1.08818180099703    3.46566318982955
P        27.34420306467089    3.27461298300949    3.76960080232390
P        25.96275102373671    2.66616367346419    0.58566512188109
In       23.67737900830361   -0.10984788637615    6.78948209194977
In       27.99984508624553    4.37297844803778    7.85952777187684
In       27.45261158934951   -0.09603514766436    6.53970945503522
In       25.93671216228489    1.76383745263426    8.88621750018489
P        25.66471355906252   -0.60352259585789    8.17322253770050
P        26.00456675905215    4.19411552268645    9.30642953378840
P        29.83231098184297    5.26897449186848    9.17927637579999
P        28.55939426452593    2.07209149552762    7.03050131098672
In       25.06752220049183   -1.15118700515305   11.85417137738905
In       25.74389589681335    6.12829367175755   12.39746039715795
In       27.35404399914309    1.98657509370066   12.18742028153036
In       24.33199073824387    3.11508201768259   13.17947486393204
P        25.41993881515303    0.86914987321442   13.24674057384726
P        25.18340406455480    5.00781388969673   14.51133184307959
P        26.92637323040092    8.24643076917131   12.41778716144818
P        27.53224093820322    4.44583588720057   12.01634184199992
In       24.50962095919346   -1.43803161112480   16.36255422981306
In       28.45771399719700    3.40263115767359   17.67096868018412
In       27.14189556133679    0.29723878872299   17.47339707397449
In       24.87321308084784    2.25198874587833   19.20930626767364
P        24.88348728850557   -0.09674428667601   18.40473421950698
P        27.22972429967416    2.78159323751935   19.67434174275316
P        27.38684913942504    2.13651991386669   15.87983555608175
In       29.79368573550567    1.33886767815235    9.01487730656233
In       28.95765015297905    4.98206822018012   13.90949158140887
