372
 energy: -27.672478769605 gnorm: 0.000137075088 xtb: 6.4.1 (afa7bdf)
P        16.03104054875176   14.38964411068182    5.16272553671056
In       16.54701651965459   19.36670246171625    3.97131562362037
P        15.28104301970179   20.98952990856521    5.28190203395839
P        18.80451653374574   19.80656824549867    4.96297836386508
P        16.90806885509112   17.41427297994375    2.51317266877701
In       18.32800994450023   18.17816406650747    8.73032691624143
In       15.88193206639049   16.64374769713706    6.10209051578013
P        17.59722666401495   19.55833639940431   10.64173526739007
P        20.62853555408847   18.55839302026290    9.72779698327148
P        18.28898561423989   17.28055914602404    6.38107743814436
In       18.45551621091335   17.67686506362610   14.11807567400561
In       16.53282860248432   15.97741153823950   11.33029754678058
P        20.75911751055265   17.63757426417515   14.95132937547120
P        18.79329526021112   16.82131109091808   11.82366556845159
In       20.67876978578657   24.92700155573326    3.01451725778750
In       18.77971268343978   21.92343868400374    3.63174589896846
P        18.26622301889742   21.12006661799439    1.39931035443333
P        18.85772274240506   26.15628060094810    4.05455817912528
P        22.75682733646040   26.22572060227824    3.38302665499587
P        21.07696000441793   22.75163903509555    4.17092243154894
In       16.92429354741917   21.65921481083306    9.60220664373640
In       21.58491462706409   23.54363890563798    8.48973963156356
In       20.19929505906139   20.68704657822711    8.48114976359777
In       18.39684876564257   23.43765893099548    6.79026147411952
P        17.95487825544566   21.06656564917711    7.41716137074520
P        20.52933096306938   24.67774245503869    6.52485437027313
P        23.41191036666826   24.92654762581015    9.45226236105582
P        22.64970570879228   21.26555951098038    8.55900239857639
In       23.77061636703698   22.41515928912030   14.47431781604162
In       21.37099375093948   20.01862890101520   14.59153876190612
In       21.12553124225642   22.54204051022873   12.08449231700606
P        20.37235295757835   20.23538290054410   12.35769380618768
P        23.30546252857800   23.64694834402648   12.36306400450776
P        25.84318372436585   22.63716913684864   15.83601764444043
P        23.81515529509971   19.92680199971335   14.12112282402999
In       23.58086371337667   26.68248473641863    1.10014507521036
P        22.47799320702489   24.87690313374820   -0.09468442097275
P        25.86145800838398   25.78556824369146    0.79197852421824
In       20.27995167268861   26.67719962753912    7.97254808593552
In       26.00990868311058   28.16158813093257    6.30547288664589
In       23.58941645186245   25.93291111129534    7.16959520358834
P        22.40411040054817   27.89810911923690    8.06553897054363
P        25.09322319652117   29.22601667974426    8.31686100822462
P        26.05392663707466   25.68952789968536    6.73607945067353
In       24.65734357155511   27.21234978356480   12.49392717693018
In       25.83215869336326   25.02413665607345   15.22969497589878
P        25.74060246813199   25.00300290506839   12.73098302503228
P        19.43270164280943    7.18962979936241    4.49518963715145
In       19.93712077365051   12.20051522231537    1.80569647781561
In       18.01486617935452    9.24420222383377    1.36234724677021
In       16.25338644166797   13.04450753995423    1.68011647534950
P        17.08049080581741   11.21955359449489    0.30048942796805
P        18.19311475009157   13.33410482930662    3.20344990775329
P        21.75653762138479   13.48395411858164    0.71823635948263
P        19.88802852875927    9.91889431882551    2.83947167257795
In       19.63662586634928   11.75967727163974    7.07132914645201
In       18.13554414608630    8.76986145310249    5.87607384753132
In       16.27243491555810   12.09811162399050    6.04979166730387
P        17.91265258950945   10.90039763334447    4.61814131358826
P        17.56491672496207   12.70540509457874    8.06842144165567
P        20.74874317359264   12.92686533528906    5.16618004400329
P        19.76805581837232    9.33172867474016    7.66757105090990
In       21.22337677815022   12.27141459297927   10.30131480877632
In       19.82531769959681    8.58362618510101   11.13501123667996
In       17.63958822818986   11.91743695496780   11.69457179924101
P        19.03571441136350   13.51285633163551   10.45539851376975
P        23.23328148324982   13.14171186572271    9.10826819397727
P        21.65821342644098    9.81457701868701   10.09355529080603
In       18.57218672995583   15.61933800068991    2.23255922155089
In       23.06373315447674   18.23139499028649    0.60455075908045
In       21.90959986054380   15.03225955799133    2.63907763197283
In       19.96690874447361   18.48756458934096    3.17535439951277
P        20.19935174105334   16.15198424357109    4.05608106619276
P        20.91458203975592   19.38490969021927    1.06347495409613
P        25.42296697560806   19.00356259883101    0.80203645586909
P        23.74707137679377   16.68438235100831    2.40649101978481
In       18.29325950262913   15.03088428882140    7.51398026166625
In       24.06485677897257   18.27768685109531    6.01343376090288
In       21.55648569449121   14.69277869974767    6.73573882680630
In       21.20705246599739   17.68926622885025    7.47314003536691
P        20.37686703834696   15.64521636249904    8.74103350412504
P        21.84571316465237   19.37455850862598    5.72025200628980
P        24.64629955935181   18.88755697927617    8.35070764139006
P        23.64660086532566   16.02832406577952    7.07577262057253
In       19.90714094788211   14.68479797621691   12.49210336052379
In       25.49135428659049   17.37761095912954   12.04542847204891
In       23.63515979287322   14.92755278165812   10.76162604477356
In       22.24183385269571   17.08020161449337   13.03848493421118
P        22.34823522834833   14.59300336641333   12.84677766236485
P        23.30823578825215   18.05393087393928   10.99112662659253
P        26.63448417445300   19.05777606706073   13.48702533534418
P        25.57945626269590   14.89088540142726   12.31527528997587
In       21.68483186046984   21.50067955552217    2.09700691170381
In       26.98847292198523   23.12677398864020    2.23151275451041
In       24.88944915182455   20.56430318602749    2.66668094651398
In       23.97180720418148   24.06841284597498    3.44175125127620
P        23.87395051801960   22.52407199616709    1.49790820911312
P        26.30175721881813   24.37045143841806    4.28165833566375
P        28.36044297088543   24.36424146159415    0.56522253686928
P        27.22238073233099   20.95039173824734    3.44611079984340
In       23.36038119392701   21.36126703352629    6.19653003570130
In       28.49849693666806   23.56870229290971    8.02172918143526
In       26.50595723931871   20.50497057422352    8.04047084526262
In       25.08910444238797   23.29079882988551    8.57727295061978
P        25.73381541974683   22.20259560282559    6.40040804470951
P        27.01634463882207   24.11078008172916    9.94652257063784
P        28.91076360499220   24.96899414710301    6.01801213083954
P        28.93568235324822   21.13473304543746    7.94085349968150
In       23.81872169381616   20.40839628781431   11.69933396578638
In       29.70671143814825   22.96485076897031   11.40440970448518
In       27.46620344125231   20.13897361900194   11.37505848548564
In       27.31661240850391   22.26973204629796   13.87474284798525
P        25.80237156400079   21.91052855576042   11.90652298631838
P        29.41355366286844   23.63968247238447   13.77217533933248
P        30.48711094251312   25.12237218706725   10.37976056271002
P        29.91579650185232   20.48815815166583   11.08139547182930
In       26.63783021932833   26.48672515958945    3.01339601354687
In       30.96115652596456   27.27534496621766   -0.37311594755253
In       29.72420620936225   25.30658931117661    2.43074471469321
In       29.01012987968098   29.07163618743553    2.41828908869481
P        28.88883495675327   27.12181685461545    3.92129594458087
P        28.73541319756668   28.01688081420187    0.25330588421871
P        31.79032825482955   26.56779015823374    1.83981993841654
In       26.33626112999682   26.36267803716155    9.12282191036353
In       31.53049505112089   29.50826477056614    7.13535785748262
In       29.23444735079416   27.11794051807295    7.25519537996336
In       27.38040386017283   30.06724487043490    8.73076051691755
P        28.28683321406170   27.86670936374627    9.42755781097184
P        29.23439774013468   30.39687220521874    7.14947269888749
P        32.49402887948018   29.31469053512734    4.89103702410205
P        31.42882171650950   27.37399528784464    8.42929228457837
In       28.16085166769458   25.61543608315132   12.89901836932906
In       30.65270162720117   31.03850251964326   11.62908385995113
In       30.70352883124819   27.29202424714144   11.62819018119406
In       28.78147648149912   28.55003804637056   14.92008086264052
P        28.52131386867979   28.06328966689565   12.55431062048623
P        31.86966519739380   29.22597117491389   12.67760226410522
In       24.43727821911278    6.64861854215356    0.98443629409744
P        23.62959684619387    8.71085566569963   -0.13028837511588
P        25.37236365038691    6.55122813907799    3.32335204133790
P        26.26034317652824    6.41980843490054   -0.62543210154751
In       23.66126814049127    6.86022411982849    7.21163232096483
In       21.58983590034660    6.11560134864463    4.15515639340851
P        23.30092047050539    7.76137912757637    4.89097188388193
P        25.18085743287282    8.28740800277096    8.56524560786632
P        24.79579771293893    4.83992765327981    8.06686142259698
In       24.62999980312548    7.93171174981678   14.21602377798556
In       23.04172369169374    6.31291742306698   11.16919354467865
P        24.65820143453518    8.08981478294966   11.72921052715878
P        26.92182869822939    8.80360676226580   14.47131972339264
In       21.77863540142723    9.06407570090043    1.44764101517926
In       27.13140451126437   11.72248618433199    1.12919495396177
In       25.73781876432014    8.94820137033089    2.72653160148163
In       23.61941619915335   11.92883652310478    1.24665517760123
P        23.52188550743165   10.07667633439313    2.90582597375502
P        25.48718504380502   13.12901040834810    2.36769677466335
P        29.03281025415957   11.90403386285359    2.74296372669644
P        26.74060310896702    9.32392971095565    0.49730914998417
In       21.59950327648570    9.23301707196147    5.97651133697036
In       27.24735408843887   13.13491465710075    5.30272600684218
In       24.96135777575985   10.02833618398704    6.81286676072777
In       23.18897386422227   12.33211693148042    5.26648093964218
P        22.68769283004601   11.01279251323541    7.34058035931763
P        25.09695791085190   13.30794492498929    6.58239467819588
P        28.64684198366051   14.39089659132583    6.95369760754078
P        26.71614296721208   10.69610069362823    5.16625364544413
In       23.17162244437697   10.07587492564810   12.07960963647347
In       28.78292002774203   11.79200555243237   10.26760381578397
In       26.59822910260581   10.52269134617658   12.71696430146797
In       25.13514157155890   11.77697626675389    9.98835124271934
P        24.64842890290442   12.07153502521475   12.40730034861600
P        27.05288263003999   12.81922213963985    8.77836234690908
P        29.12269989663993   12.67350936416540   12.55160744015249
P        27.68051693727650    9.57563058273783   10.68348275163651
In       24.95033527535067   15.07930587741849    0.90744651766625
In       30.65794170524120   17.56147054399341    1.05268685145332
In       29.00602920356002   14.37109523985204    2.16641710516405
In       26.89762085154772   17.50549618708009    2.14062214961440
P        27.38208423658095   15.54815661298618    0.68879612247941
P        29.15117911916103   18.31780845076427    2.88097587915749
P        32.33012498121637   19.03886750736484    2.15886463489569
P        30.75028911066688   15.12812750378719    0.54973484040207
In       24.99686049271076   15.32915815339266    5.09684742843403
In       30.98305775285579   17.31309383058429    7.66842177220638
In       29.27686055903090   16.08293988737260    5.25362418339441
In       26.39766066855592   17.11556671972268    7.92289367472560
P        26.91056817064651   16.88165217215885    5.49067240108236
P        28.67412379773160   18.06506946432444    8.20501980386729
P        31.61459674101781   19.74775234090713    7.69071434488325
P        31.67459718400887   16.76626792152052    5.34275795789636
In       27.16416023290406   14.73263052090896   10.40772268460116
In       31.78977185116009   17.96674135310279   11.10267307439521
In       29.95664928781807   14.98051816572940   12.16390918068860
In       28.80218115585042   17.83883754871226   13.19709582099743
P        28.60238412095009   16.72218133851495   10.96193676721522
P        31.28490644543662   17.88176636698230   13.51871435004500
P        33.27491234380314   19.96355338236957   10.83093131254033
P        31.78630241808590   15.52421149597217   10.57740869121774
In       28.44971802817979   20.19577377847990    1.37729435827342
In       34.12702324172623   22.04653221656244    2.46965753803794
In       32.53337789115747   20.27960795898082    0.02664834606832
In       30.31298332858494   22.85522806901773    0.20877404699917
P        30.09501371067707   20.47320698946703   -0.47710001313605
P        31.71093406146956   22.72487609408391    2.27597891083037
P        35.25815123195308   24.13504401147521    3.31775222398888
P        34.64465791004873   21.60460899821440    0.08314417663148
In       28.82246487749050   19.43600794081323    6.10697640781628
In       34.10463833408799   21.95483642280434    8.12775040666582
In       32.18030129042793   20.20018812653536    5.30496327475571
In       30.48775356840109   23.04403272250846    5.53832015211778
P        29.96218503522678   20.86916437534057    4.38322064326130
P        31.71494058789812   22.55921177025650    7.67447682237684
P        36.25242827753024   23.15610688681597    8.62693046007717
P        34.28694988648562   21.46624418280576    5.70740428151620
In       30.95367432225693   20.36883526815367   13.33028707621102
In       35.23798888116232   24.58504904415663   13.70754104232305
In       34.33595916307428   21.65493297370600   12.33228446755628
In       32.59028027689128   24.33398871699786   11.47882264372329
P        32.17603669823571   22.54818569604924   13.19012372072264
P        32.92754602223527   25.53976892735370   13.62718439060978
P        36.80191618811836   26.50420643301623   13.43405036821443
P        35.71693966246708   23.59400870520197   11.46315421167225
In       32.92515624282869   24.51418755715935    0.99700974769318
In       35.45757402657638   26.25910083258495    1.97045267956329
P        34.94656314299353   25.23082167099869   -0.20763489032239
P        34.28860687544715   28.38095216588869    1.63152701080020
In       31.94017575294058   25.05868607850438    7.57970411298631
In       35.07327712153079   25.12075476233716    7.58762307487027
In       32.85787634368505   26.92193784863042    5.03578422664176
P        33.52179170235927   24.62890635002935    5.66559087942720
P        35.45488925230065   27.54614335225644    7.49433454544777
In       33.80292387118593   27.66834951341789   12.70686931844114
In       36.81957191070534   27.28368021557063   11.10692849290299
In       34.21525865663713   29.99707646268033    9.87891494947601
P        34.50089802094524   27.59756824726063   10.30202789489910
In       30.69218019839288    6.21840516444717    2.15877008792558
In       27.39820263102801    5.50934951658633    2.31442414232174
P        28.38829179708991    3.42737369976757    3.10767856363511
P        28.75411418073036    7.38546714775558    3.24338384499658
P        32.34377514678285    7.21377951836695    3.73163859919016
P        31.28401696713021    6.61957359006976   -0.16461495523766
In       25.70784562045771    3.92596390608195    6.01142642003151
In       30.39501940401566    7.51056082283568    6.52788801160590
In       29.31220676836155    4.19777876055900    6.93692032350817
In       27.06822143534522    7.15238235651963    7.39415676091641
P        27.60988627333700    5.45861417708438    5.63842170014055
P        28.94723817470772    8.53179890826473    8.29525636846198
P        31.83472151056787    7.87534924800471    8.57977121270438
P        30.98493193412667    5.31631467237545    5.48699116044384
In       31.56799663846872    5.91302265631864   11.70260535154206
In       28.23415242181210    4.28347343657122   10.78115087617562
In       27.69976452097419    6.73087387526803   13.35536261158767
P        26.61553333950976    6.05365349917149   11.24378931244538
P        30.17097662466385    7.01076775629651   13.41726936245056
P        33.75091040088412    6.78717549736463   10.87560752734215
P        29.86540012389057    5.88231365291987    9.93242695499926
In       29.05757340243182    8.96666346994895    1.35592004857063
In       34.29768036755011   12.37640794207312    3.74226312148707
In       32.87512134302648    9.16191356634987    2.27964905703557
In       31.05393786152141   12.00939256753974    1.26654515956487
P        31.25724675380449    9.66037124507141    0.47018549432503
P        31.98386661791006   13.16073900126074    3.27449202251090
P        36.42017436907040   12.64463237636147    2.49161436299764
P        33.64209834249692   10.08542809199839    4.46983040762640
In       28.65874270050822   10.45662337497214    6.71816471195743
In       34.64111557409090   12.28417236163273    7.17852763806551
In       32.19640908344763   10.16089580586963    7.64810372504499
In       30.71529539274003   13.07514105084486    6.47136433366818
P        30.88671335846245   10.72700210361097    5.59733846630180
P        32.60104109236129   13.44745513569996    8.05157943760263
P        36.72271575072545   13.64739533988287    7.38067188190232
P        34.02964466061555   10.94080728638645    9.18753582983573
In       29.70628116826023    9.01378241080088   12.03318542916682
In       35.36665738152636   12.59307096186176   13.16439101247661
In       33.33669953953533    8.84056870920907   12.23047976565640
In       31.49343405040918   11.88554173729796   12.55514926184798
P        31.64017420056674   10.05548530593509   10.85218467653728
P        33.08691574027657   13.25138164982752   13.88459268557449
P        36.89546554331618   14.44995471274978   12.49528608477953
P        35.28419334254518   10.38187406876808   12.01702065260597
In       32.89901043371033   14.93319734410561    1.78738429731461
In       38.20414521324270   17.90365445213679    3.27316003633488
In       36.32464606325053   15.10463954681324    2.85260827751577
In       34.62303877063065   18.09752566774710    2.20293617338050
P        34.16389012818082   16.08801294332208    3.61043911270433
P        36.87955775826834   17.89563831877530    1.18238461503649
P        40.13987481547436   19.33803301928589    3.86011190497350
P        37.69180933466643   15.97705702203723    4.77539706853745
In       33.31415339590278   15.34529089728548    6.59155090631481
In       37.01351587725628   17.91732332098552    8.25955006382926
In       35.53335331330868   14.70861493505657    9.28759704636508
In       33.91492619403486   18.67401225310237    7.56224449765085
P        33.88271747910481   16.48247139617373    8.73389506002910
P        35.68142841834332   17.47543086990116    6.19506642478869
P        39.12867262606768   18.85428941470251    9.18222708956488
P        37.14922188921980   16.35585081361917   10.20395903256765
In       33.42096124389160   15.23567853687539   12.43373658474571
In       38.08741864185196   19.30501927685786   13.89859857670422
In       36.36649874975092   16.21199540761026   14.17224916114955
In       35.04107681798421   18.47418530433013   11.79060165925270
P        34.12589947363810   17.23007959739969   13.74887822755843
P        37.31856028650550   19.47104654850149   11.53571956416430
P        40.47819297810910   19.94277872089270   14.01458089733296
P        38.67738602291003   16.99483886345822   14.59800636785879
In       36.69062049339828   20.22155348027973    0.31682906875538
In       39.90265173700894   21.26712615562826    2.31108527764517
In       37.07585665780846   23.43918988837098    1.72863793237895
P        37.42956199543467   21.10372426411110    2.51318685459342
P        37.70584052876396   23.36670129048396   -0.60989771395395
P        40.37258906022019   23.38333015426080    3.40517917296182
In       36.07268580347991   19.78261970534313    5.28093280787912
In       38.96622391392432   25.63155175566857    7.21156007664019
In       38.73954098167874   20.99006632988299    7.93228109710445
In       36.92011584070533   22.91955210108933    6.24136462927060
P        38.27508723577914   20.97430688097769    5.47698626000306
P        37.39055321244864   25.19231092303510    5.36802220100070
P        39.48157435783301   23.36564143282169    8.06503296375769
In       37.53914842846660   21.92001901658965   11.94916041254990
In       41.52779829004900   24.48854293002208   11.06386173684569
In       40.40495171680933   22.26889207786092   14.82864109108074
In       38.69698178216163   24.89583420118726   13.29686441342250
P        38.03549941087459   22.69405354347217   14.24747062897593
P        39.08910766338411   24.36618701658844   10.92160848356040
P        41.82644121921803   23.46613415697225   13.24059012397455
In       36.33012389032189   27.42344180863462    5.22419705282252
In       34.48030500726730    6.18595254055114    2.94993657058318
P        36.19871275993130    5.65730010375014    4.59226079563321
P        35.76396043896047    7.83448403395137    1.65008326697495
In       32.70771029465799    3.73233089194367    6.31469347496696
In       37.35614508624202    5.99877387489713    8.34528478566577
In       33.66575686394604    7.00574027680870    7.11995612800485
P        33.25115260470898    4.92777552759079    8.36575593281110
P        36.06689595746304    7.64243102412912    7.04467850661312
P        39.47253973579839    7.08181041788442    8.79891240410426
In       39.61173308580203    6.74851436421478   13.05903923210968
In       35.54217499071776    6.01416845507846   12.37443528056246
P        37.42505974669011    7.59382254633641   12.44239385183345
In       35.85594503441124    9.29992593584625    3.62695351901572
In       41.78732268693003   12.09532269810687    4.37141774043155
In       39.31100180052692    8.68846241408913    4.88015278918983
In       37.90193271057339   11.97918601521880    4.36602224993286
P        37.27884996539591    9.90220177144681    5.57861308145164
P        39.82468733738139   13.11612766809424    5.47636005606334
P        40.62276359616124   10.16161573854683    3.46464293448545
In       35.82347916482414    9.21841536748173    8.95241908364146
In       41.09474322063687   12.71333336830950    9.23769225273418
In       39.80555849123954    9.46023014266864    9.28143574068642
In       37.56282745051140   12.14731029220716    9.20796209195937
P        37.67632248939896    9.96973117474619   10.45518794013051
P        39.13519094436656   13.52977501277682   10.56187031741375
P        42.01514859403392   14.89491055742561   10.00518304178309
P        39.96444233365993   11.23764799675254    7.57916589397664
In       36.71354029273379    9.51079100636479   13.86641782812335
In       42.12986892580504   14.93341579626158   14.91842248380074
In       40.79107130723301   10.59755712568226   13.02611420299273
In       38.68250201336254   13.59989505332563   14.01545293394707
P        38.60001510879624   11.11911608098056   13.91791047249720
P        40.78736883541420   14.42153673510654   12.95799061088448
In       39.60471890984866   14.81121295832839    3.63066166860432
In       41.50790497787434   17.99785483340921    2.28174306363978
P        41.63314341540053   16.18032954815970    3.92335317578170
P        40.05860803781805   17.64556407505622    0.36436708461676
In       39.03878467223920   15.37800621616680    8.85784326949657
In       42.51573856761935   15.47748543884621    7.68706072231331
In       40.58685323808650   18.25343840580889    7.26212587883670
P        40.25662504445320   15.83247721090098    6.69695869512141
P        41.81707013989224   20.34453936951090    6.83838641647216
In       39.79071068726682   16.65014880494409   12.41631465402280
In       43.36390923160346   17.72897214540029   12.37009284316272
In       40.81076597694386   20.46525476116873   11.64990128905104
P        41.33210076603186   18.11156746525198   11.08451421219582
In       41.74540238919414   22.73063766621902    7.30394807349375
