166
 energy: -12.114838667919 gnorm: 0.000115835648 xtb: 6.4.1 (afa7bdf)
In       12.88514536273242   11.23252572161789    1.80771821668311
P        10.68620069248254   11.53612563009724    0.74941965251250
P        15.10949344711244   12.35351390396139    1.88024278445870
P        12.93239149078858   10.34106021961472    4.12407622102179
In       11.87908969212425   10.99705485362542    7.86305288582726
In       10.64543762442478    7.17045327775556    8.15288080011734
P        11.42558898313053   12.28292164163537    5.77674069655867
P        13.57746979534110   12.55767224322038    8.80199207247820
P        12.31157931469629    8.77497366608680    8.93997904724951
In       11.14094126886867   11.59214064117253   12.20797920460379
P        10.96756104647589   13.11781854175586   10.28966225230602
P        12.96759094099482   12.67130008606956   13.46159852594979
P        10.78904071529916    9.25176976085405   11.57121531752436
In        9.64183821973968   12.56866070406918    2.67851403860313
In       15.21651855264743   16.77436500152080    3.49534155537854
In       14.07556110538341   13.56729597854759    3.78946290996143
In       12.10850462118321   15.09322649739887    1.20427461323081
P        11.64791632059528   13.87174029185201    3.29291541336822
P        14.07094527993516   16.56202447354582    1.31464275366040
P        17.49091784810070   17.79095747240886    3.72265317272097
P        16.23390037555732   14.66713836086956    4.39041378833864
In        9.88811083190948   13.89916400742597    6.81533821383359
In       15.12604731371632   17.37059942231108    7.04549971650551
In       13.37950524212065   14.54658720237938    7.31092140433528
In       11.39920501668943   17.62419365047842    6.17065036023833
P        11.23397685326159   15.73446030028451    7.75416314504078
P        13.00615362120586   18.35117911661064    7.90215762055063
P        17.03763979238475   18.23800705259486    8.38787505562606
P        15.34769185913251   15.40015457788390    8.59708548995293
In       10.57822248708095   15.21700016118986   11.49824588430514
In       15.90857319627199   17.69307444880403   12.44615414787457
In       13.82448068266675   14.83315433940965   12.59648100991866
In       12.60769846701481   17.86757053781384   11.40120315632231
P        12.81650051845289   15.55499839962910   10.42380155829834
P        14.79813679447676   18.24464036390605   10.26758595091681
P        17.62427304083888   19.16170104441432   13.46090487973430
P        16.10807270680435   15.40138786078696   13.38759317914010
In       13.23786382507018   18.87875520954642    1.27071799226338
In       16.61287884652493   19.83719349725790    2.59045608921266
P        14.23486180940041   19.88662656698705    3.25623152045632
P        18.16446442127851   20.87571270849794    4.22563447494331
In       13.52931944020903   20.59835074917439    7.00647220310935
In       19.48945727815172   23.55805191706898    8.36197694042400
In       17.12597589469799   20.68078224446757    7.84781244015576
P        15.68355382217370   20.63393835086771    5.83200829739956
P        19.32776939620508   21.17956435012710    8.92105613109920
In       14.90260871010516   20.63814738367494   10.95617599338256
In       17.45512763597555   21.62142370907160   13.43448896788594
P        17.00816978577646   21.87856144426286   11.04073351463045
P        19.53725876352430   22.84180803176147   13.85564800656148
In       15.61886984894374    5.18421617959945    2.15859838105330
P        14.88330847321075    7.24337553404348    1.07338564083753
P        17.35162411754821    5.80019332632359    3.83683459806503
In       14.74354806068299    5.01424103327604    6.98025348391329
P        15.46467129824867    7.00597246214952    5.71959313781517
P        16.23721227607552    5.75575281512099    8.81601582595263
In       15.66345856341904    5.54091382842676   12.11889936028458
P        14.27109761153816    6.97372559067296   10.69461474174781
P        17.80794207887632    6.50942203578527   11.34415082607912
In       14.29327154889726    8.57015417759870    3.05572316707462
In       19.48195908132393   11.20536169542267    1.95643068102352
In       17.60690263775048    8.05413198358548    2.74271015572996
In       16.79019964696713   11.63465942878380    3.57473940445231
P        16.24073159015834    9.36126287905451    4.41231920577110
P        18.94812385534973   12.97558519050574    3.64651204475402
P        21.60173738778339   11.95731361786079    0.88192655263198
P        19.42400331731162    9.44886537624652    3.72928875891100
In       13.97755981717127    8.44282520545332    7.11052975142628
In       18.78355852822290   10.88394592770418    6.80820106675518
In       16.93687422703171    8.12383963721384    8.44260424696477
In       15.65903054170685   11.99852991395740    7.50203273963870
P        15.20110513130605    9.88614206950220    8.75028131005527
P        17.97048571045010   12.79211270283240    8.18228647434825
P        20.85021299911462   11.70925728799973    5.68118298732113
P        18.91156049746371    9.55121477005397    8.89584667535606
In       12.84102079835453    8.13297147755474   12.32637190135181
In       18.64049992097546   11.63674652514774   11.58785331158810
In       16.97408005074453    8.66633384930465   12.26092828968483
In       14.94512787835620   11.52820291537710   12.50634608523649
P        14.81492388683108    9.20282124577683   13.35213324128953
P        16.39354967945376   12.18729586501280   10.58300825058818
P        20.83155117774760   12.55240851407799   10.82506748629018
P        18.81642788737700    9.90833156861454   13.35257875245252
In       17.51042025015082   14.47715094299324    2.23567543305352
In       22.76359010338716   17.11543516640966    2.94115860275387
In       21.02575126356803   14.30093028739422    1.51534825127180
In       19.27195405623113   17.68176716411683    1.98790567059732
P        19.08160877836688   15.59344730476008    0.66944394111631
P        20.88328935074586   18.56756222805824    3.66506739540753
P        24.67699422778137   18.52655583547821    3.69853387176968
P        22.15173688862293   14.81261007738429    3.66380760804685
In       17.48294067146147   15.06808578726954    7.33196574254661
In       21.97650452737006   16.87590540347603    7.38143185134657
In       20.40743328364997   14.03344327528245    6.49236001942687
In       18.80865124841750   17.94751434784459    6.64702088197409
P        18.94240146303296   15.76412860167597    5.39718315173242
P        20.28560391944185   18.22722013237501    8.63244889419857
P        23.99416463470921   17.90786770536750    8.40431017828941
P        21.43618316886545   14.78305588953044    8.63382835187352
In       17.05122207398325   14.52933772232611   11.27904378603553
In       22.57890990748907   18.09169628597321   11.58517232651450
In       20.28418886185318   14.83237073652273   11.69812346098700
In       19.04176604577168   18.22306082092738   11.64642498376380
P        18.69317902738563   16.15333020726345   10.26688764736309
P        20.86782820647796   18.83798135314726   13.21844362263673
P        24.63974378116980   19.27349187889260   12.28792375637276
P        22.24542248801794   15.92473286860782   12.74476642267999
In       20.29063513314414   20.88424623663284    2.99353509402181
In       24.21769110370949   20.76785223054960    2.78288026892189
P        22.32444169073735   22.24265532856039    3.12573600968447
In       21.07389425028018   20.24643357334708    7.36677460081464
In       24.46347732361283   20.11319183609183    7.39261360042551
P        22.76960596916685   19.50283385314819    5.69500246897188
In       20.79479450953757   21.20787879382013   12.52831579806556
In       24.18956169176563   21.50949637487539   11.39416235933093
P        21.97279192391239   21.42925514199977   10.37540236431416
In       19.75636790761596    8.32813441342040   -0.37745152405293
In       19.05353596700331    4.68589318158830    2.40468141492424
P        20.17469043377065    6.49655680146240    1.18849116946961
P        22.04082660957467    9.15060854670772   -0.17886125482726
In       21.01348232759262    5.31756774519546    5.62902751787704
In       18.09368988978133    4.90806324199822    7.36324425787620
P        17.45663206583773    3.18045074266300    5.76307518565778
P        19.00880115177095    6.76818146654204    5.94789994461780
P        23.12046634049312    6.09655285515945    6.55811780043986
In       23.65122303432966    5.51663478369018   10.64268758697006
In       19.81629601127000    5.44250039220792   12.27222018963662
P        21.61003455186109    6.76046325881587   11.21784429051860
P        25.49815866104591    6.77103905579436   11.59365358709410
In       21.11695890509078    7.75246342953259    3.09702806517457
In       26.16712388684457   10.75539884206016    3.09143130192020
In       24.14818000639701    8.72220472497663    0.99326448528933
In       22.62863705769175   10.95256997528223    2.91845589802548
P        23.42120314746986    8.63137655998149    3.35906326844275
P        24.41482861355955   12.11153639839900    4.21829325357632
P        28.44782739174385   11.54813975510793    3.53937459854550
P        25.29064638580451   10.89074356912643    0.81089647805143
In       20.31070595142178    7.79988527954037    7.81123285730707
In       25.65198521106178   11.02394414121633    7.95561808173728
In       24.05890053542818    8.05843585866992    7.68539707660623
In       22.11444463133561   10.90199260631674    7.67176631682337
P        22.15643428265344    8.86414023480933    9.10618599686130
P        23.74713292651464   11.99297776184680    9.22253780783856
P        27.92784047486505   11.86423061518644    7.56403300415963
P        24.51703830361236    9.88228697753900    6.06180614480173
In       20.81136604466657    8.88007313854876   12.28007508817609
In       25.51739895099379   11.14051472062120   12.75729125534112
In       24.04744873011072    8.20068830992975   12.98100907716601
In       22.16525837086606   12.11278546712495   12.89131997593208
P        22.42496521568983    9.85196362266442   13.90697012177259
P        24.34056467011123   13.23933213478781   13.31844330023995
P        27.41734283956963   11.79890717135125   11.35283621577122
P        23.98537022245113    9.95449732788976   11.20021523374558
In       24.26003790861108   13.99531158650031    2.58055834435317
In       28.20700667070640   13.80166045178105    2.68956977595094
In       26.31772486499918   17.59882173572984    2.11304272751166
P        26.31652724570895   15.32279309265563    3.02701621323748
In       23.61702772633929   13.96347845740661    7.70448559055975
In       27.12471046532787   13.94854662470242    6.60207485809216
In       25.46672413826876   16.89406833818728    6.66985868810803
P        24.92474128601169   14.65079407085822    5.68821225076387
P        27.68141070947234   17.25156527745884    7.61921804024554
In       23.97876625925235   14.76939132505548   11.40713824581518
In       27.36808643981751   14.16270763194913   10.82017623720473
In       26.30694943989790   17.83096738850373   11.22471570322202
P        25.73201242997890   15.79987430122290    9.95218203591021
