24
 energy: -1.417118455280 gnorm: 0.002845541609 xtb: 6.4.1 (afa7bdf)
In        1.05633948964676    0.65254526517482    6.94122379448864
In        5.59025383641568    4.03781246489024    5.98532084949691
In        4.83976632222144    0.54572745774289    6.90820324175913
In        2.59073383705516    3.71252928704828    8.27973583961196
P         2.96627117002193    1.27706554762868    8.32247934586408
P         3.15940217156755    4.25946648379051    5.99036317835068
P         6.16984183348383    4.31080034053610    8.31836301442886
P         6.11819982715119    1.76908928981399    5.25270986579452
In        1.22376029617594    1.93124974519995   12.52555668235833
In        7.16197773040586    2.31615565677309   11.58402560538704
In        4.37793503801041    0.09062908462189   11.62032960256648
In        4.45580884332884    4.05828883623354   12.40755074431154
P         3.58490854075390    1.86389554597669   13.14143808768618
P         6.64037407237125    4.71936975077768   11.53632088186387
P         6.59004958382955    1.80105602921790   13.89412738153178
P         5.23208570141098    1.82715326778482   10.11593166964741
In        2.35703677819579   -0.06658903066111   16.37374738953527
In        4.78893205333740    3.56717451866335   16.68191899946640
In        4.95392226635449    0.92213318283286   18.97617531672242
In        1.41707647203528    3.47121744752098   17.49317220388081
P         2.69946081772731    1.49694568959753   18.19523490155542
P         2.67933332735244    3.90651963515686   15.46266206755032
P         4.67346777427608    4.58808898536665   18.87470515669459
P         5.76252766161841    1.30570560513084   16.70550417946665
