112
 energy: -8.142946447938 gnorm: 0.000106364011 xtb: 6.4.1 (afa7bdf)
In       12.49691132879310   12.16838417428442    2.80280362360216
P        14.60637302499780   13.04479836653611    3.77978562459406
P        12.80070200680672   10.16517359476107    4.17878358978897
In       12.93107266508502    9.84847784318615    8.10027721273543
P        14.02331495075384   11.44753834270807    6.52397738906119
P        13.36494290732576    8.21911760800159    6.29173194519312
In       18.00682413841967   15.75577920049074    0.47993601988798
In       15.13692816109745   14.26019350965740    1.65291654189855
P        14.49437926222822   16.61004543061159    1.55877835192954
P        17.47378931202149   16.96022380417911    2.53255857085013
P        17.48114012823536   13.46341930286431    1.25973022259823
In       16.13799521837883   15.74846517281614    6.54485626141492
In       14.86851336921987   12.85005474593142    8.40092239377471
P        18.39991836193856   16.44716857349616    7.07825276127802
P        16.78276001727234   13.38834677829428    6.90326393062961
In       15.16011902292475    5.04251588248607    2.45286137748312
P        14.07970606057009    6.56429409400375    4.09135348690631
P        17.24811907959648    5.57305397467244    3.70484009180827
P        15.25121678825935    2.86486442403433    3.59991353089265
In       15.78815453978921    3.34347596669611    7.88385505505808
In       12.46249820468864    3.73178322480776    5.96270761650149
P        14.67641532867196    4.77052966002492    6.17714544167006
P        17.47848867308807    4.96923216235868    8.71115973546149
P        17.22099755742557    2.59778731806226    5.98797278569806
In       13.88476801794146    8.56015911438020    2.62023271810524
In       19.39197215810502   10.61766462221081    2.66555423412382
In       17.42897311928283    7.57206305747456    2.23481343953957
In       16.09637512723775   11.16160938011288    3.10757970989540
P        16.03422646084281    8.80365331405632    3.88595223195948
P        18.09503589852149   11.61612926213766    4.55754510764292
P        20.09230389438048   12.28666324000941    0.94668008281918
P        19.73850746102068    8.15948372738035    3.00175773789528
In       14.09216086733420    6.47870263064218    7.91969456941520
In       19.52877106625382   10.14799568000306    7.64657031700529
In       17.36347525387870    6.78780561630207    7.01518050160778
In       16.09076574937532   10.13160234043904    7.12463658176723
P        15.87612828284388    8.08715522352190    8.52854170118490
P        17.56931700206915   10.87799087040649    8.99606860869622
P        20.09100764310600   12.28477709629413    6.44620256633710
P        18.74149032357324    8.55057956581209    5.89568643291626
In       17.78559973316752   13.92239454420627    3.66979467902051
In       23.25205397790516   16.96460411110696    2.72321461570645
In       20.98470542563379   13.73747901505546    2.79284910870624
In       19.77876107020492   16.92804078805029    3.39741521150449
P        19.84579358602963   14.82076914169658    4.75092003743152
P        21.19947622443024   16.79437514100731    1.39345741182624
P        25.69623550253479   16.65229139553331    2.66464856563743
P        23.19425236878376   14.63811712446130    3.59120097546976
In       18.19813173320487   13.28123424206622    8.94684665487322
In       23.83660445468777   16.60930880596468    7.69546364569313
In       21.79864708613231   13.03368937309876    8.14759208779532
In       20.55716875362604   16.23934204278992    8.22665263703253
P        20.33630159354940   14.27651976723457    9.71590916521498
P        21.99761953710976   15.73805161878431    6.25896544451967
P        25.08856887540212   17.53006674668062    5.79342668773641
P        23.97718412386594   14.23902120232782    8.45141350608788
In       17.07015178349449    1.65803411317282    2.52535022725391
In       22.40706292834042    4.74368719976464    1.43185710217373
In       20.82380492622954    1.34034181896680    2.06972045868536
In       19.41312219170776    4.47337463459198    3.23946465717646
P        19.17082340895810    2.04002168644804    3.75674720608622
P        20.00957149596823    5.14751073922745    0.93718339941380
P        23.46452163350276    6.16674354055418    3.18458254210825
P        22.83072335149990    2.62230463469003    2.66017635632313
In       18.80093355577118    2.01252920506610    7.79415918068913
In       23.43400403081904    5.57022064098018    7.38559584483250
In       22.11933897058780    2.50689576835022    6.93358682739474
In       19.96447007830734    5.10582855442687    8.68521369094188
P        20.02645290893517    3.80370173388675    6.57974808823471
P        21.57425683652651    6.96067413879768    8.30068930733648
P        25.45338524454534    6.24295270505962    6.07635861838901
P        22.96126102001367    4.21028459422425    5.31622379241623
In       20.46360610688867    7.57940506347530    0.69026777467073
In       25.75267246628728   10.87742406509273    1.79997242096606
In       24.08159896552997    7.88686714483267    1.48117764254753
In       22.20052942828936   11.10383319645479    0.33197060563684
P        22.47558981772777    8.70259902617563   -0.21581640416492
P        23.39872465219021   11.44934695866570    2.47712080716283
P        26.38905250204753   12.69344875256209    3.41201335206714
P        25.86316236565938    8.71238043928073    3.03110083390402
In       20.88958480741005    7.26656450661338    5.93393230894824
In       24.70738510636544   11.19069658878293    7.80494472112480
In       24.28465730301416    8.45199559708693    5.83446148048347
In       21.87937641779467   10.92629207993066    5.33254830402185
P        22.27777595164920    8.65302569831296    4.37748229611151
P        24.27124873768521   11.62494013065110    5.38748898259935
P        26.87453613555265   12.16769298626888    8.46037375288398
P        23.34420089554976    9.11235196141386    8.03609460789708
In       24.03221934351562   13.66905344399144    1.44578480958273
In       27.89899482175931   13.78105978783690    1.73618212855754
In       26.09634395169714   16.27363783772703    0.29352198633997
P        26.08250644703901   13.82284602433580    0.04729278540267
P        28.91037863769607   15.83230937079149    2.58605313510120
In       24.90449309423107   13.93009015203328    6.17709410307255
In       28.08382826581245   13.61755992681524    6.87659133033854
In       27.41220947198773   17.03020818072643    6.30702980261879
P        26.93663402407529   14.92695833563440    5.08561083881022
In       24.79577195669126    2.14957003415007    1.25016832088293
In       25.80756736988262    5.34870801047209    2.82110393866297
P        25.69860689098315    4.31403898717197    0.59840765031616
P        27.86980741282735    6.01582185310493    4.01449751067492
In       25.13956665037166    3.00210229009723    5.39492859347043
In       27.44226895238915    5.98916827883409   11.49282847405846
In       27.03353310534311    5.22166885229082    7.70570097668333
P        27.44393364744328    3.42874727520006    6.06690605900712
P        25.74701255368069    5.65365936732630    9.77985406415551
In       28.22257595814477    8.04055764824221    2.66364959182960
In       28.24918882845901   11.23160670799163    4.19090622564744
P        29.28322417884422    9.07436407334851    4.62946194471834
In       25.38470823445232    7.97260719568173    8.95017648585480
In       28.43685397293476   10.27443188502529    8.36501604903119
P        27.14128246774030    8.48900111270311    7.29195187337609
