56
 energy: -3.694834024077 gnorm: 0.000514673500 xtb: 6.4.1 (afa7bdf)
P         5.26203228321253    4.05916203994735    7.78676506989150
P         5.32044897674206    2.91146014806975    4.14395701268772
In        3.58553122693795    1.92848336286481   11.50726377072622
P         3.16463969494316    3.97678040892611   10.25311317464144
P         4.25719344897003    4.41985129741718   13.72099961223575
P         6.02598149837823    1.52185453156309   11.38999957324537
In        3.41468332980178    5.21832599300684    6.67271618941364
P         2.24771745102387    6.52774396097982    8.35327123929703
P         4.83748267041024    8.88210908753531    7.59339033399964
P         4.74359660511058    6.51330637517690    5.03958843784291
In        2.65013986752636    9.72623386391505   11.03865369448337
In        2.77982588927004    5.52219922619323   12.12004356844873
P         3.77911486192022    7.81188193470050   12.04550361603377
In        8.78464230788918    3.70831459478534    2.84676019096008
In        8.54461787367019    0.64769840481307    5.30310942913103
In        6.69669696255581    4.12454506523293    5.75575615582701
P         8.62667140972738    2.77010139213206    6.48877108944805
P         7.98462932500578    5.63484017855061    4.17811695449295
P        11.39841856677857    4.63555520235561    6.22386275270940
P         9.94924915900207    1.68890811524833    3.58234529299928
In        6.13623468799616    0.37866683288764    9.23780742961846
In        8.54417208183077    3.05688425066571    9.93593982898370
In        8.94712889621434    1.61522341071709   13.93754831825405
In        6.20165916596166    3.83842891538467   12.31270411439826
P         7.97404133822391    3.84900813812765   14.05518892067196
P         7.13649425889041    5.06730259518080   10.31387678843455
P        10.61316044652670    5.17289542507583   12.90863171758139
P         9.57785007279602    1.49502846758272   11.55668115093695
In        6.10293387336003    6.71443870936189    3.00912440192989
In        9.13707808726608    9.09893766515174    3.54674185147698
In        9.72737140961655    6.39429077870230    5.79422915084496
In        6.41880584685473    7.16767904035383    6.78513244750202
P         8.37303251004197    5.98572949106664    7.84413642088465
P         7.60440178145473    8.85132677418410    5.41090661259955
P        11.08123934619903    9.51540007098667    7.50386999110178
P        11.04400597635411    7.60521473161489    4.02203900278723
In        5.45980378981914    6.88878148769916   10.48277588556662
In        7.95632785064080    9.42925089389526    9.65312982951410
In        8.56233127010506    6.23494677137041   12.03702675777911
In        5.63366756299889    8.63945142255274   13.49299556510023
P         6.87879744685688    6.55055297402678   13.83939336615802
P         6.69943791363818    9.86434562000729   11.67309434644406
P         9.68943497543523    7.85985165521023   10.46387986424499
In       11.74591598294020    2.44231070797100    5.14111609475152
P        11.44563683152112    1.07434616052413    7.16680288978737
P        13.20556641921460    3.71918424379052    3.55635471946246
In       10.27930380509442   -0.60866801738153   10.53753119000186
In       13.89507796614938    3.23720206669358    9.02275526609637
In       11.38181430998101    3.22960392762577   11.63881895904695
P        11.56592016405953    3.97082817611006    9.25685532918010
In       12.03135777773532    5.72292081516030    2.77568990778376
In       14.78543556934684    4.75257534696653    5.11794496321404
In       12.50311182416427    8.50955227816692    5.82269800551050
P        14.06419348063914    6.70591290644746    6.35294943794745
In       11.52173370832008    6.39533853946529    9.67879226736937
In       10.69041816299787    9.22567154313795   12.25309004845500
