54
 energy: -3.391917056584 gnorm: 0.000644796574 xtb: 6.4.1 (afa7bdf)
P         5.28180494920415    5.23779897781302    5.12750576617194
In        5.83752827200203    2.60377446353244   10.40069801029390
In        5.78550585447781    6.87514820548966    9.92043284514295
P         6.97897219276618    4.76625247507267   10.14062579891317
P         6.90667894989066    0.42676518127680   10.53789301862000
In        9.95219491808677    3.08565714423816    4.93992678307213
In        9.22341640127011    6.32214212837260    3.61246463373139
P         7.81228626562481    1.96797131690553    4.65524422214789
P         8.23171649047128    4.79404108620682    2.05361849819719
P        11.20600863048844    5.21221196533239    4.55899565694706
P        11.69121395136796    1.35337685013884    5.31064125243016
In        7.78462008975019   -0.06220050530906    8.32574005845472
In        9.46695879121574    2.49565941572239   10.20814019132865
In        9.73823856662403    7.24369697058561    9.61542875155964
In        7.92940498922316    4.50258244917709    7.86324995351947
P         8.74561644767773    2.15586675070592    7.86295116341179
P         9.04307532839199    6.63882411569382    7.36674560865980
P        10.18518785568127    4.88307636473999   10.19066973012547
P        10.48188165944656    0.35151150328283   10.87805131496138
In        8.06445714045329   -1.27951875392941   13.85222285041114
In        9.91588902370224    1.40166268695755   15.80571416414416
In        9.37074014193816    6.03551771448879   15.08763554340864
In        7.69296477449227    3.23005230400133   13.79275331929432
P         8.80157120459961    1.02657578866580   13.61758082783028
P         8.34207512086820    5.44123230942388   12.95595603945123
P        10.29611281425812    3.85136985052013   15.73279307297399
P        11.16905182935604   -0.67140586383728   16.18791094571311
In       11.46609525100495    0.55218627332857    3.00441102874712
In       14.62586556947500    1.96962834695705    4.24165827010215
In       15.11718258341347    5.67491444346272    4.31853618178039
In       12.34249175126325    4.38185407234055    2.52054481658340
P        13.20517249955208    2.08884408863621    2.22216011295402
P        14.19011153390778    5.93873977992549    2.09634076508231
P        13.86709506700558    3.95430409096628    5.52721211938444
P        14.42242901850426   -0.16693693624035    5.42581621462189
In       11.67636822384674   -0.25680771001682    8.84824593147716
In       12.89523848487955    2.68158459290018   10.39386391005840
In       13.65693194243091    7.02476861263228    9.40100684112858
In       11.32616761402205    4.38547020854786    8.03929749135009
P        12.18224473440220    2.04232810167908    8.09045493868867
P        12.68757193477660    6.29747168021339    7.29570377422450
P        13.98221046973893    4.90237557696024   10.59876346948331
P        14.38836618618110    0.91122435363829   11.22150509972855
In       12.00325294748019   -0.98563010470725   13.93993839003588
In       13.76896781339081    2.10662893268728   15.45862186266247
In       13.23314424716127    6.35363726703497   14.63314455975774
In       10.99993077156687    3.47364322940186   13.39095950410345
P        12.40510017543106    1.41457656729116   13.56101187053045
P        11.90089992831577    5.68738055689790   12.74461729988908
In       15.90735604792988    0.54257572855028    9.36560933417364
In       15.72166633242553    4.13164218678593    9.01367349930402
P        15.21643872269465    2.14075140568290    7.65370683075691
P        16.92352496550602    5.90250666178552    7.87260071760234
In       17.07191503033709    3.86637509735943   13.10662514487766
