284
 energy: -20.365813683302 gnorm: 0.000251977911 xtb: 6.4.1 (afa7bdf)
P        12.29277782489169    6.10322407718562   10.16870536597416
P        13.64714178479172   11.27776643016370    3.57248342890641
In       12.21651091060051    9.97067829200931    6.33959627515649
In       10.05135307515638    7.13826857322891    7.23462025943016
P        10.72173317887403   11.55037708532550    5.25051191271773
P        14.06466458052795   10.51548878887963    7.91623668579345
P        12.14025979260176    8.12850132256971    8.03025264358233
In       13.77484567936545   10.27642358651327   11.01259763623229
In       11.78181194085392    7.48576176000045   12.16185203283760
P        11.41061945642978   10.20282494640508   10.26082792079752
P        15.97207631617679   11.54603738203469   10.83733612908550
P        13.86176060967891    8.65631731442425   12.90839012725022
In       14.92259013007989   10.43989631425542   15.94564641017847
In       12.32670965159921   11.42974720422072   18.86778478063733
P        12.59686288986124   10.30424402121642   15.21636507413017
P        17.00634170107999   11.75253069001309   16.42013674077134
P        14.40812798878978   10.26771722410013   18.37896253493500
P        16.10743141372144   12.28879716589476   21.16051630012960
P        15.52925643237862   14.05530802693570    4.00892954619905
In       15.65189539147382   15.97437096543080    7.79690549022795
In       13.91311825837138   12.98739513381438    7.71624712263470
P        12.97524375558549   14.39722749571845    5.98236379321663
P        16.24165954527021   17.88898612451291    9.17337532508893
P        17.37388988752888   15.36073770324948    6.11765796088010
P        15.66959049414286   13.92073509138971    9.21832796735241
In       10.57508755836271   11.42065564167407   12.19397592641724
In       16.02728623915784   15.68361410967922   12.83751950305126
In       15.06070395320167   12.45913728462883   12.98010327936570
In       12.57251596513624   14.46876719189574   11.20995816189086
P        12.58340286238582   12.65829296143700   12.88686832700517
P        13.58545056005671   15.86314997471660   12.91903537788329
P        17.64344174734682   15.12854243251885   11.04252220793654
P        16.53890425943226   13.84066314853922   14.44359414101407
In       16.55771296196011   16.47233955042174   17.65807655310667
In       15.37248986358594   13.29208152535863   17.52269593228915
P        13.61877941473613   14.23917610847520   16.13965660025278
P        15.07689017963736   17.51270314686919   16.02380785980817
P        18.27431642768365   15.69695388140764   16.04349019164747
P        16.48886991985647   14.60586218620578   19.30256044280220
In       17.17629388260672   13.74713118463943   22.79593112819669
P        17.12662947887889   13.26939848424741   25.16419890905695
In       13.38912303583670    5.76191891726378    3.16665903431556
P        13.32879984472916    8.20110247737558    3.27017099273482
P        15.84313924068574    5.56146212793715    3.26174704629422
In       15.83643956079741    4.22946285505046    6.44796891152356
In       16.56343106925051    0.35644612369852    7.37750325695242
In       12.29421711922400    3.58644949526011    7.22972798474540
P        14.10372785455893    4.97698819673884    8.08173908448838
P        17.42793534262081    5.28289876428585    8.04676822358691
P        16.67114036763991    2.04481008371983    5.65070252908207
In       16.63609296178196    4.51249598591070   12.06645657348668
In       16.04476410650104    1.31283305815202   11.37072419771187
In       12.68548934232196    4.21680250829334   11.73073717214628
P        13.89760052679507    2.30747852546894   10.78120780281151
P        14.47903142390207    5.37862114065552   12.96814693525954
P        18.16856962068155    6.45187123052359   12.52768999056003
P        16.91615010839442    3.17636743882094    9.97058643454213
In       16.10347830491337    5.11041814839087   16.03259807151494
In       14.63821203697124    1.73935477071323   15.78451264134896
In       12.18739583158452    6.27712450028543   16.06815784243453
P        14.49985964134290    6.98284278907644   15.72152063911341
P        18.38825113278320    5.75346164238905   15.25106315973113
P        16.60090384268650    2.78844867534153   16.77734543400686
In       13.94529314898256    3.82053318523058   19.66078016584301
P        16.16687116843691    4.78854691347077   19.76433513602849
In       13.06590090365019    8.99197850633919    0.97589808454349
In       18.99358218270199   10.44359030758841    1.42862753221145
In       16.28348328388256    7.31210811009435    1.53098318738156
In       15.83106695286878   10.75014101882949    2.60563779880977
P        15.44441098446903    9.42932835770823    0.54179106698753
P        18.07715159291031   11.34506758923949    3.56181215089797
P        20.85749569308288   11.98731103396170    0.84686381819776
P        18.21155762273998    8.39455742901312    2.65973144983396
In       14.18768049010825    7.19449160797231    6.93196092924015
In       19.55704673441129   10.20651040223686    6.25105547667609
In       17.73685184584374    7.22501277600300    6.51958489723515
In       16.00263884884436   10.15509305973779    6.40567339606371
P        15.79416940344721    7.97221955403510    5.17719026534006
P        17.86306334475447   10.46148027805678    8.04943635940013
P        21.28087875031765   11.91359938524994    5.61675758875942
P        19.80289178410581    7.89231925658367    5.27931315713601
In       14.94588056139599    7.12723810292786   11.24984387059910
In       19.91450209551217   10.69769509577118   10.95954606190876
In       18.46693608779633    7.32017506831352   10.25192896901071
In       16.85352995090340    9.59174268852521   12.12496283197456
P        16.37685116727681    8.61188777705445    9.84364057554771
P        18.85887393993812   10.61534783395873   13.19605756280114
P        21.82998120796074   12.26461664208063   10.97040712531960
P        20.69671330574308    8.39792730729158   10.46327895713511
In       14.93614156448208    7.87282233305901   18.00172825573478
In       20.28277768538636   11.90792291775844   16.50094385786372
In       17.68555396329921    8.09207001562396   15.83919311705347
In       17.60719538594741   10.25485638178117   18.30683089381381
P        17.42074226490742    7.74905216388953   18.30182389524932
P        19.48652131905081   11.80751314516266   18.86041087259792
P        22.35675260331423   13.30285654608842   16.21818978162812
P        19.71981064675046    9.54830721487652   15.88835167624206
In       12.26263518187763    7.83428120925262   21.19324886387721
In       18.77196976436313    9.67675928187458   21.69896352620960
In       15.87988271461105    6.37745517169578   21.66356070820253
In       15.62486999789770   10.42995009740599   22.70232733898445
P        14.56125857098198    8.47873404657970   21.60936417673097
P        17.75557478748309   10.05122159577184   23.90865168931546
P        20.90500518744777   10.94833221443852   21.56893629606216
P        18.11858630259045    7.32968304144656   21.15961837746325
In       17.53842717279058   13.61959985381777    2.69278509002808
In       23.29729345934221   16.71205521866190    2.75690160976483
In       21.09490626125381   13.72860273439390    2.59224685837959
In       19.12698777951334   16.79274245910126    3.14048859204035
P        19.34250374288011   14.54603507837430    4.15354935409098
P        21.10677066797226   17.01443325791265    1.74818634286569
P        22.89426660702851   14.64969082992208    4.05092491057232
In       17.72164170647784   12.94034520579017    8.19007161574207
In       23.30709981449398   16.73798550375322    7.24478282908852
In       21.28914828445958   13.68963074664372    7.36142475074377
In       19.05558290025971   16.29186333685828    7.67626781783418
P        19.60072034034642   14.31128158728411    9.07231979554645
P        21.03363934012317   16.85213249676990    6.32571544313798
P        24.96900458991207   15.65342037972920    5.76584554210852
P        22.87797964587589   14.90791963974416    8.86130467470175
In       18.66468161782532   13.09326079084030   13.35833620665251
In       23.18808013639032   17.51290413826571   11.80187184906814
In       21.78636130756834   14.39975205192137   12.21299695736879
In       19.23817424096386   16.50498013646973   12.36077484701970
P        20.19349272723789   14.94038761935381   14.03999617287692
P        20.96232809921122   17.27803332573394   10.78342602839971
P        24.86728355004853   16.23017014732585   10.50101991252538
P        23.32359555361211   15.79241220445347   13.59285172560381
In       18.92796683260448   14.22308346485385   19.01674846636293
In       23.40792354750701   18.84651161813852   15.97973972188144
In       22.53492025104306   15.68312693913817   16.99167853536245
In       19.76541839254381   17.37828469708562   17.10883531493570
P        20.78900924088145   15.82796222278965   18.76057090751106
P        21.17443517372207   18.13749591679432   15.23594506415826
P        25.15110788517876   17.29310565119034   15.14473136256097
P        23.41879295776233   17.69826394585898   18.16176907609748
In       18.94814133795375   11.64945706230713   25.37397637656191
In       21.68885201654223   17.40746939828692   21.94868572511803
In       20.94781343732818   13.33401302471794   22.27616796517235
In       20.06191885538024   15.61778001109977   25.21429582507546
P        20.66773194928131   13.31513408739361   24.72808205666293
P        22.55409397383456   15.14486766556156   21.71474418118058
In       21.48436817198693    3.79684059692942    2.08478041769701
In       18.19278726234679    4.84714682534949    2.81637939712149
P        18.45465674648932    4.81258152852223    0.40689564957549
P        20.48276822191308    5.51508843171533    3.59250754172525
P        23.13701890433601    5.65812418046080    1.91085408909314
P        22.47205215698165    1.77042885500762    2.99944088112717
In       18.91577357075206    1.78652641727423    4.68630266254757
In       23.09373577850622    4.28274840384663    8.08132586396642
In       21.41517169323515    1.43692714781483    7.04199795788232
In       19.56839855184058    4.28349186861426    7.22604255969913
P        20.85178379899395    3.20735079751066    5.36776587123462
P        21.02626655948637    5.36762357514652    8.94256090941571
P        22.95565822684088    5.19137552113735    5.77528572800343
P        23.08760375302702    1.89631440104204    8.82750435959287
In       19.22062968544379    2.25498727841461   10.13153089464344
In       23.18319589754580    5.55522820680932   12.83249993872773
In       22.20668504735858    1.75800398033477   12.60929615197907
In       19.94781673893543    4.67835720949018   12.35902755539685
P        21.38683229372657    3.29841905499580   10.83831981967970
P        21.09527901252538    5.97335328408988   14.14081934040526
P        23.44133837568134    6.68399684504621   10.62903744462785
P        24.14866920212202    3.27053559364719   12.86549451242652
In       18.63217380891389    2.11098737041419   15.56308814361592
In       22.30751612482146    5.90141459145796   17.80868482793980
In       22.44975816883142    2.25142224636201   16.97406594287465
In       19.14675839541511    4.97622616228009   17.47983833008589
P        20.59710884133814    3.55216681563523   16.00234026073831
P        20.27059500638120    6.49280008849164   19.12930700165984
P        22.60686219738212    7.65483495815080   16.05667342742661
P        22.89857981064188    3.72742237125484   18.91824284538899
In       21.18767097909539    4.53483938435722   23.06562748252927
In       20.64121061501136    1.40268402724212   20.98963566108852
In       17.99913569423904    3.78450161877041   21.11511897286190
P        20.27980221255055    3.68276943542203   20.12089233069853
P        18.72163477041815    4.46208698690201   23.37336709577584
P        22.79616313892607    5.48584203648746   21.39200249070977
P        21.66145069585447    2.12189897993141   23.06959995303136
In       20.40779125758435    7.42385958045420    1.96948960829868
In       26.22165678594306   10.10934928349856    2.61235535937676
In       23.51890161483016    7.74209679546975    3.21048999116184
In       22.77050102897875   10.64711607767597    1.68672857765463
P        21.49247956116136    9.25354874195406    3.30392873566389
P        24.17871912520344   10.98018503657242    3.72604082920674
P        26.27033918591719   10.69581186477894    0.26450254249839
P        26.03318132103621    7.73073105943555    3.32207676894401
In       21.00863502393171    7.31616563404522    7.38394513267873
In       25.94247794240080   10.20179997141017    8.02507096542149
In       24.22241689147302    7.23457834034104    6.48210571625102
In       22.91707677585801   10.51369034876627    6.85469372960260
P        23.02776683719492    8.47787825047048    8.29022856585058
P        23.92552241870311   11.27736615440090    9.04406435519616
P        27.72300577625883   11.50471514188366    9.15781796050403
P        26.10103212044467    8.80748072384813    5.97989582106241
In       21.30060313162218    8.11505856668412   12.84682511692735
In       26.90446549327885   11.11239878013106   12.77160177893138
In       24.87308634467512    8.70876791565719   11.09830424953954
In       23.03484501119028   11.05856770775833   12.79613232970691
P        23.70430968902160    8.67886296375967   13.27986779539485
P        24.96399877230382   12.02461304905099   14.03727478436660
P        28.76297555869621   11.73227022745922   14.32672402123526
P        27.33683111232752    9.28345846958855   11.13356763101305
In       20.41332494164857    8.79048273502661   18.14922000226974
In       25.41672760561028   13.99916651233620   17.20746441279238
In       23.00800385175094   10.05598294860772   16.52752284811718
In       22.46851648709732   12.86432993824300   18.66496974924068
P        22.20458747434453   10.37983471867260   18.85567396998258
P        24.25083097981347   14.47995813542301   19.34639034041631
P        27.64545285479156   13.88270765201201   16.08885854593813
P        24.89354927787441   11.57262351065771   17.04421306563815
In       18.72670582609190    6.93298971703446   23.54681473098937
In       24.05800300910869   11.83299674751922   21.61832681701825
In       21.95195891783113    7.82014545418536   21.60580792674225
In       21.76898994387271   10.34728698951781   23.81915664122539
P        20.94707554786905    7.99441619903473   23.85442987505701
P        23.51891438726204   12.10734208450252   24.02122549046450
P        26.23638577016827   11.89694939051721   20.43709795646653
P        23.91013156231641    9.35043084849502   21.45017392064207
In       24.68149512822922   13.29262506748551    2.96179480456519
P        26.90764346076459   13.91039583411763    3.72679469982413
In       24.71983982439794   13.43256969968344    8.07314310067268
In       28.17131858661868   13.30616165056816    7.48438004800217
In       26.79806582761643   16.47913077714789    7.21628941488470
P        26.69472343611471   14.69048378922407    8.93827725855219
P        28.96890153558919   16.57096012659939    6.13506448388423
P        30.60531348127694   13.31631908528390    7.44145764652734
In       25.13539933214295   14.21536823581547   12.89947713970381
In       30.24474011584690   15.87385177706513   10.35065858842949
In       28.72109512654680   13.85469143621752   12.97774991566881
In       26.66684790271479   17.11227804334778   11.96340899315855
P        27.05230369550907   15.51947988381666   13.84987971401718
P        28.94205251687416   17.69422065925811   11.26278152899643
P        29.51154645986511   13.53941429535005   10.63594146207151
In       25.27398140121092   16.73840790703404   19.46726332787402
In       29.07851084599794   15.68973932245553   17.04921036704361
In       26.83210511087869   18.37869435841285   16.60177291626501
P        27.53161757956625   16.95828512307215   18.50112549378586
P        28.52465118264199   19.23067820209219   15.08457725847921
P        30.67718562604988   16.24467394949939   15.30764373135935
In       23.81382450866368   14.55591171231113   23.76893064078276
In       27.38506654695226   12.36632492405874   22.53149115499970
P        26.14071749594438   14.39159382523763   23.01106036620083
In       22.93240617701533    6.25307752052929   -0.46988550426838
P        24.43716550600459    8.15236885331786   -0.19604922217846
In       24.75467593379249    0.67983659707181    7.47499166869892
In       28.69793213073584    5.17590607812366    4.72415002351066
In       27.52132161637557    1.18422349381954    4.65734420003814
In       25.14683272243314    4.09327348661634    5.30318247138756
P        25.21676826598470    1.62346166377241    5.26664979668957
P        27.10357535061249    4.97639774574258    6.55232637710910
In       25.72029389667465    2.24865980626263   11.25260722857929
In       28.21641267603064    3.96392305104159   12.40525523019289
In       28.62666419871593    2.28542775519248    9.02071255639327
In       25.64881248423653    5.49593078862614   10.53399083544214
P        26.52377078054384    3.52878361687862    9.28850661816883
P        26.23937294696576    5.40369449458298   12.94192438992777
P        29.15337918488359    5.41006909246448   10.66157437269474
P        28.99379943556563    1.86482514476993   11.38523969988161
In       25.28866025600626    3.79309531563650   18.26318722011302
In       26.78321466835942    6.90944342234262   19.88202571851934
In       28.25636490999139    4.84380369538818   16.28120925640300
In       24.99728252209271    6.90579035763671   16.19882601789798
P        25.84718758935651    4.58158018814377   16.00515964882442
P        25.04110081247763    7.87936794454450   18.48245319360858
In       24.74901403716956    4.72326328023499   22.63616400953675
In       26.16790547403359    6.92041642341321    1.00001985099951
In       27.32177357621700    7.25066770305651    7.54138673385129
In       31.02613602492618    6.88583366634886    7.64290814256860
In       29.27477766512718   10.14898245407415    7.72442256354134
P        29.26050096788801    7.96768042451391    8.95627121067120
P        28.61107471336146   10.50445378481118    5.41721532173239
In       27.48535204911351    7.56755865933603   12.94887612365962
In       30.96732460674461    6.47354344927980   11.90127006001832
In       30.01806953391391    9.87148978097066   13.25004239866069
P        29.80352671710299    7.46370220300004   13.81398054435922
P        30.50708866192556   10.34546840839667   10.89100702616516
In       26.44029402416351    9.69270161125906   17.47672768362152
In       30.05351116265217    8.81307987268606   17.81910980391022
In       28.64621658796104   12.45828504828951   17.89607751127301
P        28.39137808960836   10.20162230771428   18.91967356356939
P        30.78318233524952   12.46406771242481   16.71402967795136
In       25.24741120558654    8.70736065498193   23.37438744398039
In       31.51613887452120   12.45697052521388   11.62578229365491
