336
 energy: -24.883659876345 gnorm: 0.000772978376 xtb: 6.4.1 (afa7bdf)
In        6.14092994192845    6.40840633984549   10.09943043444081
P         7.00954176227025    4.15609806040872   10.49064757499889
In        6.13317729575021    3.98385749577356   15.61108436836646
P         5.23546687386469    4.33109018979360   13.35551462214123
P         7.17556353502258    1.76965179670057   15.86364375190284
In        5.89905227644352    6.19085031970722   21.69007476966598
P         5.10803941525153    6.41098939243200   19.40016381302746
In        6.68616644090655   13.75534267757771    4.72024791478983
P         7.39863795041734   11.43985498120635    4.99532823058671
In        5.95627043414389   10.99604272292522   10.15908418379260
In        5.98254972745858   15.59173968595891   10.53623498439567
In        4.27643146917743   13.60138192859172    7.81199047624099
P         5.27154106637045   11.37613732143907    7.83146784301017
P         5.39855340440026   15.77342501678020    8.13273510027575
P         6.80950306830226   13.25088760725135   10.83122560643460
P         6.88310927896170    8.71893123583378   10.61124278998821
In        4.15523078284335    6.51467812832808   13.36097178757940
In        6.00834043920190    8.52793869633504   15.83403355457728
In        5.88686834857994   13.10060712847977   16.04030391210312
In        4.34072356518336   10.92527763855210   13.61235061752822
P         5.35579692276411    8.67271127190607   13.44138489478010
P         5.28798782975169   13.21631902359121   13.63251213081474
P         6.82045029586826   10.81516676952848   16.42534378813696
P         6.94672610506064    6.25316087323459   16.23969700038049
In        4.20260113278978    8.64967580245986   19.13321641130940
In        6.31818252261617   10.51866206227393   21.64727948857663
In        6.37044201531789   15.00121957839905   21.99388062541050
In        4.32523401585371   12.94095566148473   19.51084632846852
P         5.46761357029981   10.75690257519472   19.32535559095580
P         5.51933202860272   15.10197367453583   19.65885650467724
P         7.36473077113747   12.71758731261858   22.21394743375811
P         7.24968080250844    8.22923665584101   21.91567412018440
In        6.56872785058474   18.20670779641381    5.00807926311959
P         7.34319382499066   20.44656029025245    5.41106717751158
P         7.60111419367089   15.98347017001027    5.25439992502658
In        4.21622272687978   17.93240703649035    8.27031480320279
In        6.07354408848210   20.19495958475601   10.84239332547899
In        6.34731481829489   24.79345829132384   10.99019114522179
In        4.63438671091995   22.46878569203157    8.05313424753460
P         5.25703806233506   20.14299188700309    8.51418869609694
P         5.48847191870930   24.64503048708235    8.70014232512498
P         7.05826696255832   22.43072716630476   11.35695430550743
P         6.88058637580238   17.84942390347132   11.13391146915164
In        4.30789223960827   15.48491729948651   13.86947173156357
In        5.88783934278960   17.64730409600333   16.34489383316308
In        6.00141755331843   22.19594203349150   16.56085432362483
In        4.35098533097497   20.04836195630035   14.14964287633899
P         5.28821223263404   17.76218123715460   13.93796050898118
P         5.36985241785044   22.30784923811223   14.16099856477311
P         6.85860722862371   19.87798173770922   16.91026713212716
P         6.80148708042507   15.34180975642041   16.66089966259290
In        4.53354551383835   17.36228589526063   19.87249593882212
In        6.40856366272446   19.52612328422842   22.21230663511551
In        6.45123969566451   23.96382170417554   22.55120228387186
In        4.30946895123206   21.75275354089422   19.97744365057274
P         5.54620609158131   19.62066170371518   19.88167971567153
P         5.34531759201735   23.91837592407128   20.36494684857099
P         7.50602588046740   21.71361240722758   22.71884065669993
P         7.38752621468857   17.23886667869417   22.44602289869096
P         7.24190032544616   27.07040229872980   11.30087161326817
In        3.95052418096532   24.29225203595650   14.09996402551077
In        5.45740460268994   26.30863534475683   17.49990848407020
P         6.95122694379077   24.41360685031983   17.19146121395440
P         7.38021912519986   26.20805832412645   22.92777956729370
In        9.55241669550718    6.32393185710018   10.46036836784685
In        8.12948105622356    4.05729894267827    8.32122207676858
P         8.81402675141939    6.42053226729635    8.10502654493848
P        10.56348859731431    4.08357110096636   10.66657132570343
In       10.37354848714662   -0.63997361111247   15.82728712038386
In        9.63854650370874    3.97243438620175   15.68404750907875
In        8.19935810483607    1.62390293994688   13.64266165044707
P         9.38999777890050   -0.53187901907878   13.60655526308858
P         8.71309910191727    4.04469901157193   13.39250440037309
P        10.75762605810878    1.77886110383774   15.93760456577166
In        9.92865362717381    5.78229541396894   21.40101844929607
In        7.78170011845379    3.65206275220006   19.25792940555599
P         8.80421822563062    5.87273031987578   19.18702685034300
P        11.01954259117662    3.57443479101700   21.55133334307141
In       10.09691578064240    8.77215724643269    4.99694354565972
In       10.08793524891007   13.50434361590747    5.19643249559280
In        8.67418738514884   11.44694697285868    2.90528405106802
P         9.69342789015741   13.69275193618978    2.76195961114570
P        10.84229170004592   11.11790580862529    5.30473848970313
P        11.06043835639245    6.56521021602145    5.22444208572444
In        7.87615648170553    8.71608750263823    8.33237884394142
In        9.29069591237026   10.92135888094676   10.47530386371668
In        9.26773496870869   15.51542760972415   10.71485134030714
In        7.79182188914864   13.36235971402376    8.55704901976675
P         8.65604127586945   11.07152125621884    8.08408157617773
P         8.67562338603889   15.68313168976994    8.30990839747679
P        10.12555414077172   13.20331547068857   11.02409322596115
P        10.25865233202590    8.67116059399194   10.90961676964286
In        7.81465268720939    6.30527509331584   13.92137342575300
In        9.37036317694527    8.56193402724494   15.94614584122702
In        9.25944389914393   13.14381674864533   16.16503329914108
In        7.65227759345707   10.90744171408854   14.09317508247213
P         8.58324774732063    8.65220411878856   13.59544370265460
P         8.50957594567426   13.22381756857112   13.80089879993645
P        10.17276380714780   10.85503453048594   16.47474701218865
P        10.34034195276250    6.28826007401649   16.26275260826964
In        7.90115015835312    8.17312897789823   19.53103314142913
In        9.74779345642392   10.35912860430957   21.54795289734008
In        9.72126813311172   14.98204075716764   21.72498101375575
In        7.94226912654216   12.80322342830597   19.80525114808895
P         8.74984904308960   10.50606250470375   19.28109219406663
P         8.76143495167309   15.12513064663189   19.44609848764334
P        10.55481969414487   12.66517240345709   22.02325985439328
P        10.74443082038678    8.09450683983988   21.79504949405782
In        8.05890563402943   10.26408603217402   25.23038602441852
In       10.37771742574598   12.30796297245179   27.26258035512073
In       10.78517430936376   16.77268191999720   27.39934880611213
In        8.46056861107335   14.77054102606285   25.50538259280968
P         9.16136460114796   12.44065162388459   25.11447920239503
P         9.45057851972243   17.02686204008652   25.31369823354001
P        11.62845615822841   14.42837869867951   27.44470758625535
In        8.80789252697021   15.99423754422703    3.07755310243094
In       10.22874776147348   18.21191629025377    5.35200211668575
In       10.49563426324857   22.91260333004749    5.72928744594356
P         9.71525553924393   18.28067021537036    2.95775905789596
P        11.05162389314376   20.50538206123587    5.89919070185574
P        10.89345432458128   15.82829370976288    5.66361254024641
In        7.82850771123830   17.96591735314748    8.84650966376292
In        9.43150380200590   20.11643718798594   10.96680165270751
In        9.62751505944405   24.71080762650424   11.30905974716352
In        8.03985464588289   22.53877299896829    9.08047345714512
P         8.81386655036393   20.23180702419852    8.57164060380919
P         9.11321504773752   24.77249652996886    8.89305882435971
P        10.37998568706015   22.34789021742139   11.56397628235935
P        10.17927928488229   17.76110821442021   11.29205690086579
In        7.61338770843398   15.48556150039376   14.32532516927956
In        9.27208522792369   17.67648791028614   16.37346760556994
In        9.37905864992757   22.28253994565713   16.63121778486312
In        7.67451818419279   20.06809411119347   14.57777027301490
P         8.50188187885758   17.78778568226260   14.01788802723057
P         8.56158387626992   22.38022447535026   14.29102127027505
P        10.16873431818945   19.93502431393403   16.91943611245597
P        10.19772266475509   15.38514803789438   16.67546683155328
In        7.88655261436281   17.37839597360392   20.02476460838228
In        9.79591768965459   19.53552490487812   21.95654972353464
In        9.88865484761619   24.07906719266198   22.21687715716257
In        7.96410591408322   21.95565508596841   20.29283677158315
P         8.78043543600633   19.67967803316934   19.69971193466438
P         8.82323951482021   24.27523996414937   19.99134012393690
P        10.76969338767623   21.76267766627605   22.49666792439946
P        10.65368721388391   17.21830000367332   22.28023071964337
In        8.46553003362815   19.25720882214754   25.70140830964855
In       11.05437268975445   21.24033205587179   27.60470067252817
In        8.78975153834258   23.67744163226775   26.00410635746828
P         9.65667912805865   21.41399107156060   25.55048690684452
P         9.61414920056079   25.93625058138258   25.87282135960621
P        12.07522086635193   23.46547534901266   27.80656145808189
P        11.99931117410758   18.93413506285343   27.77024490804348
P        12.44912434094969   24.31038686567565    5.91424905329608
In        8.38126846616695   27.13166174694444    9.12826634868795
In       10.23960555779867   29.27855889626840   10.93812600362792
P         9.84859923808888   29.01726763167086    8.52402058651268
P         8.07520107457526   30.20242283037458   11.53775433660151
P        10.73547785100538   26.92298768562882   11.56668612844637
In        7.74398925967035   24.66803519849539   14.85558226739897
In        9.45909730526106   26.85728002604074   16.84582341004853
In        7.06138520397431   28.80921613810612   14.83635056421448
P         8.63196227508149   26.97394385395793   14.50470479200075
P        10.32666982864543   29.11227533533495   17.31402147983328
P        10.29237838976884   24.53633579801919   17.15526751905207
In        8.12583290707226   26.58059393356601   20.62642550675423
In       10.12752093655770   28.71584193528057   22.59667378453592
P         9.15812477635634   28.80598746720464   20.35605766462435
P        10.75754633474687   26.33960947594736   22.74052285131616
In       13.11090305844384    6.40195092795311   10.54441917491400
In       11.70240050248672    4.05778568770585    8.51390212578402
P        12.23816309243842    6.44565649478145    8.22701430168926
P        14.47248603917480    4.41750126780048   10.94955542135799
In       14.48038467397549    0.85484486158582   16.32598433170794
In       13.05792809443475    4.35122467219799   15.84902019952867
In       11.60223172251348    1.85656526144733   13.61110797172339
P        13.67514046008376    0.62469166187334   14.05703547233936
P        12.18374696585709    4.25718323350531   13.53714427736999
P        15.00143428392184    3.19244031956958   16.92051419501730
In       13.23977498531109    5.95664855945785   21.05937909664248
In       11.62373166807671    3.60076540796644   19.19470884483622
P        12.10851396367996    5.99974713933015   18.84542317170650
P        14.56394678266597    3.90450605900305   20.84792199910780
In       14.94967461295407   10.69357109115832    5.24635471128688
In       14.75675420014574   14.03872911440984    4.51294594759710
In       12.27323085219739   11.49851231277410    3.30090126510545
P        14.63730039579247   10.96482542971950    2.82949820894887
P        13.00272465309107   13.81181737403247    2.78210552159191
P        13.65079375646829   12.59159673231962    6.18231939308559
P        13.57531513895547    8.68979092191980    5.30875266565648
In       11.28575012847580    8.69367141149108    8.66031703034914
In       12.65834891412844   11.08721401227924   10.70033130197486
In       12.65787419054972   15.30408045190827   10.84460078247668
In       11.06725794435124   13.26625127048742    8.73222740737848
P        12.05356803504913   11.02923358277850    8.29011468757851
P        12.07306369038609   15.51334340266509    8.44035934585209
P        13.84048224057658   13.17983531133260   11.34522714806560
P        13.60093517204162    8.81002174229828   10.98908639408514
In       11.18822059829927    6.48525135426661   13.94273240714403
In       12.72243120112414    8.95268914698356   15.96206941457767
In       12.79205015715189   13.20456079341613   16.23462528517697
In       10.95462684916343   11.07779381599687   14.13360696945404
P        11.89033339216453    8.84136515175842   13.62871057393677
P        12.02732145375539   13.28901028322241   13.88791120313049
P        13.95807528776037   11.02399366027541   16.52798342653519
P        13.79480949127995    6.72827434724591   15.86568014947804
In       11.20897818713661    8.24551041208851   19.36832833610146
In       13.31537221824335   10.17986463153344   21.37855197751488
In       13.18057333122053   14.93562336265332   21.54552805263632
In       11.31031674637119   12.72569708844809   19.66433569796673
P        12.26324191419425   10.48520022230122   19.16576509926385
P        12.12612983294775   15.05073614550587   19.30924702922455
P        13.86491462854134   12.56145473285804   21.81052421924191
P        14.51455403303710    8.02143223046103   21.55709300887271
In       13.78467426195913   10.68752991574737   26.10797768835761
In       14.04030073995416   16.41096704329721   26.68186869276489
In       11.82461067650441   14.34155821533205   24.97120649945500
P        12.48685340781912   11.98192273250778   24.55279262315036
P        12.64748406961851   16.68808871821975   24.65101119335788
P        14.70819820088387   14.05552977843801   26.74570068730193
In       12.11988614883320   16.00696314758751    3.51934558958619
In       13.47489267157974   18.13065737000252    6.01874006974688
In       16.06582121705085   20.74869429761014    5.03267406773390
In       12.44150015366364   20.58540754172864    3.85436635872516
P        13.16316690369499   18.25492283860790    3.56660295098804
P        14.28335927604051   20.40016317433009    6.62918429087996
P        14.80843801141803   16.06385878362299    5.91149796230459
In       11.19720172086372   17.76111348383440    9.03506988079998
In       12.69519212921716   19.80553327662358   11.18079035452067
In       13.10328821312842   24.36431983800777   11.52269724424949
In       11.49546341255194   22.41817865430611    9.35465206203491
P        12.08886413208786   20.07342428428560    8.78640094577624
P        12.92068742093510   24.43861365313938    9.04953635541702
P        13.74534380972644   21.97065143213837   11.80022843111715
P        13.64808960694535   17.52518301236505   11.34145863980092
In       11.00075748854392   15.49672150995992   14.33745926058745
In       12.53154783291595   17.72682533260441   16.38231501126511
In       12.84693937206025   22.33781701089449   16.58884270710989
In       11.01001043200486   20.12664103768882   14.59780064982770
P        11.76910638252172   17.83141748939706   14.02484029684256
P        11.93752639436827   22.40774588461688   14.29013128430762
P        13.48014567135730   19.95295574671070   16.92797164861544
P        13.63809054123151   15.51431893958954   16.56794983287104
In       11.27732588487451   17.31502801996276   19.88153136601125
In       13.09399090905177   19.50062038549479   21.78618845581976
In       13.53530902172860   23.97424830544356   21.80481639919929
In       11.34880178056458   21.97556585210972   20.09354464899755
P        12.04359698552301   19.65606951244398   19.54921042869493
P        12.24584615538411   24.25754275961746   19.71014187840856
P        14.33349118199780   21.63542722290005   22.03080867189587
P        14.03170662522554   17.21232707153529   22.02510567417138
In       12.08817380329440   19.03403217818778   25.29132693105286
In       14.33383693828996   21.08441648426712   26.83368319673984
In       12.42093371226302   23.74158502400761   25.40399645258540
P        12.86450224382326   21.36514019423226   24.86136484280977
P        14.64291211302020   24.71707032866917   24.99536020824514
P        14.97092680091333   18.69354189868137   26.88147998578163
In       11.98324456331168   26.72185860767998    9.42196358046351
In       13.80985634220355   29.11316284305017   11.79804134822065
P        13.25589005736781   28.82962900265596    9.44817413726214
P        13.91909929227308   26.65993076574453   12.06389410078837
In       11.13013318245796   24.70219712764412   14.82936021479411
In       12.86053077000587   26.98805790529905   16.76324764840084
In       11.08670712521993   29.30150841358149   15.00692366992060
P        11.91285213947212   27.03347746059967   14.46239983566915
P        14.29594170436874   28.95049861817157   16.76410960675384
P        13.66283230451161   24.63708053559973   17.04983283838713
In       11.49192723568537   26.52658670348708   20.38188547461198
In       13.92938716349052   27.99663284932636   22.78295127828197
In       12.57273253829194   30.92473374850950   20.00001237076361
P        12.79652003152089   28.61029763528638   20.69471454764528
P        15.05576706768288   25.91475121705437   22.07763185654713
In       15.03066928932788   26.24082796617497   26.80930327071539
In       17.13001466458853    6.27789955719249    9.20089781340711
P        15.61084341998647    7.11412199991968    7.51223715997146
In       17.83824323809805    6.45611327309900   15.09223914941655
In       16.03914568460599    3.50478272204805   14.68708169117507
P        16.42711261885485    5.50811329486828   13.30170713326422
In       16.61894579476038    4.94658132201842   20.05669241970829
P        15.34547010066344    5.92479990353772   18.20236409931104
In       14.68726706973872    9.00224378197946    8.76881522251305
In       17.64920586438807   10.15407862362683    9.97299331832826
In       17.63969720601498   14.34775215737166   10.45551497392825
In       14.93247922376779   13.18735710043055    9.12834412581038
P        15.99411353253169   11.07760142937381    8.37807105072361
P        16.26581593812994   15.20936700279798    8.57387939872755
P        17.24742315496697   12.11766359179327   11.40884419818806
P        17.29807559273635    7.92895166528120   10.98113481169727
In       14.86252629628580    7.39426404323059   13.72590042236450
In       17.57962055033971   10.03914643355507   14.66431979329787
In       16.75727970528708   14.33164758736805   15.92431541373438
In       14.72696146181999   11.44985450513370   14.22760183886901
P        15.80755744710681    9.59732333105806   12.95362256533342
P        15.49513686420509   13.79090841754349   13.85164945406107
P        17.42972450117865   11.97683237070321   16.16804790605327
P        16.69036787097918    8.31796825909715   16.19086449354582
In       15.07822678434084    8.21167406597293   19.16317721801692
In       17.11688486746879   10.72328900253842   21.15379936068048
In       16.88029546084886   15.08669638161809   21.08635393173268
In       14.69422547004540   12.81361458069656   19.48967374863183
P        15.77396513125680   10.61086001124600   19.09654579608902
P        15.45448701445436   15.14674998425028   19.05815288288400
P        16.98063783224868   12.90719968866011   22.22602005933406
In       16.98464696548605   13.92102762915131   25.91029261172095
P        16.83525715758473   15.80731929426550   24.38450752277674
In       14.94019521396105   17.22076272764232    9.23948142495493
In       17.55118489939580   18.58314998854264   10.75260930819419
In       17.80569391938327   22.89527588749343   11.46461321806809
In       15.01541168151208   21.59628885620884    9.68877048902607
P        16.04364114818483   19.43643922740272    8.97146303502522
P        15.97707479427520   23.84325954418436   10.12280060820703
P        17.26532281430624   20.61442333218143   12.11894919931690
P        17.06595832828875   16.35921581641891   11.73877949095669
In       14.50569694459861   16.03089418691514   14.29848818815794
In       17.55287197817558   18.24968300350496   15.07851849512743
In       16.57341512209219   22.52636046224235   16.44333580568930
In       14.55066048673054   20.04117712225197   14.69963356856888
P        15.63691233959825   18.13957219131807   13.49735926252089
P        15.27101852864399   22.39765308695943   14.33667976071387
P        17.85101718524866   20.47777233678669   16.02907959157431
P        16.73871670094572   16.67008016802330   16.76590672833510
In       14.74755103921168   17.46155997372345   19.67060463598675
In       17.86928712304626   19.00154106282486   19.90277288316685
In       17.16967404009873   23.47423915103509   21.19230690729006
In       15.04288192802135   21.55119704704121   19.66245444282873
P        15.82316682515637   19.42753229388875   18.58084250386159
P        15.58947787093156   23.98130685031319   19.34973287353721
P        18.13309998669122   21.26320950179464   20.81021600089192
P        17.43179830747330   17.41351318736828   21.71471855651931
In       16.90379497961202   18.00812320037318   25.48445386718908
In       17.34801746331198   21.55427767581833   24.65706852767966
P        15.97548820257637   19.69760464322408   23.93401105774533
In       15.45733556849128   26.25764374003654   10.16005152673204
In       14.69962034914619   24.78476466958750   14.80007416957124
P        16.27649483098848   26.63074435584113   14.69351886100782
P        18.06687045202782   24.41270157293226   16.76606540299898
In       15.54337333259270   26.43088335231134   19.72270768192181
