184
 energy: -13.180380908785 gnorm: 0.000144696105 xtb: 6.4.1 (afa7bdf)
In        2.56382732375967    6.56002744339226   10.13168638880816
P         2.35705287850818    6.88286921421872   13.94002940871601
In        4.43190976939192   11.57715083231673    4.74891697396518
In        4.16034851667757   15.71485450167610    4.28554883212074
In        4.42263576662392   13.13333610675641    1.10700889453912
P         4.83273244694658   15.38151877828036    1.93071211014343
P         5.32556236830528   13.79506093453140    5.35177602653719
P         6.07649091327366    9.85869716107954    5.09038642310973
In        2.97406910527674    7.98261348011442    6.51438882320573
In        2.77949229256040   10.20976828314629   10.28744437364614
In        2.89009265603715   13.89498114443946    9.95031051646275
In        1.38945561232438   12.01489146678743    7.18331399466922
P         2.48641269764114    9.93281530015383    7.85962875367520
P         2.81136399763084   14.00358375474441    7.47577794215036
P         4.40504487795582   12.03536732722753   10.68288563699193
P         4.21847271988030    8.22670534919769   10.74743614213162
In        1.40261001421575    9.07876599203447   13.77411277018198
In        2.41183972257322   11.70825196441721   16.10038150888067
In        2.24985157126018   15.21671044772774   15.84120663085947
In        0.86030918188746   13.27126459155860   12.95634691555020
P         2.27513282855698   11.37802985767604   13.64367608674213
P         2.13808000302768   15.34539717989819   13.36192291723018
P         3.94560299988336   13.58200164326249   16.67256474144816
P         3.89990652932825    9.82636746643655   16.59267493907362
In        5.00259278257619   12.59839076484515   23.14328804513590
In        4.44733515092473   16.12795814847454   22.20054860855298
In        1.92973589321551   13.57698979721006   20.09096956644808
P         3.06060009895843   12.22194096479787   21.74491177051084
P         2.84414815091616   15.84508767131369   20.32755281466541
P         6.25594988420582   14.40617893169174   22.03640274069308
In        4.78356522375723   17.53040838912313    0.74312536694239
In        3.38148383224192   19.23939675659352    4.51312806796686
In        3.80790880450069   23.42513070051579    4.32863529111369
In        3.31868178959216   21.34982287901787    1.21872812800316
P         3.40651566486513   19.06095941855669    2.06053321226623
P         4.44832151016644   23.41871890306856    1.92130897674092
P         4.48277930720669   21.29260116551484    5.43563266961630
P         5.24904796587407   17.75985801472840    5.21669548489950
In        1.50416234064871   16.02885525082374    7.00104892956901
In        2.40650890004534   18.00520347672279   10.03725530082369
In        2.27144797890949   21.84622702794913   10.13526895475273
In        0.84068524964107   20.04331132326949    7.23784690290947
P         2.46871311579336   18.21836532635948    7.57270973373763
P         2.32426419778491   21.96847024075578    7.65751661195889
P         3.70848992447132   19.94260438176008   10.87450313198379
P         3.79712602806157   16.06370734082252   10.75703257160438
In        0.68236376248337   17.33650612062824   13.24974940703404
In        2.44289825740440   19.03252203138162   16.09093036105231
In        2.78639983432441   22.76234833375976   16.21403570238920
In        0.69246852735999   21.31991378788974   13.50319701273822
P         2.11201045348578   19.31102924018514   13.64774007650242
P         2.32663852910730   23.14705965017024   13.79948847194468
P         4.16370293831337   20.72719899783733   16.65058591531841
P         3.83721574075618   17.00610635587589   16.51471998118096
In        1.70238818509146   17.95694375962053   19.80832534636470
In        3.94378239046667   19.93316053744739   22.16883698765723
In        4.58101889699992   23.58937903592192   22.09482475277113
In        2.03563971058264   22.36538639036241   19.79421220825888
P         2.93411914830457   20.07993445589960   19.91105419502285
P         3.95344478807411   23.93217762802259   19.70180167714911
P         5.88150510648871   21.48261236127732   22.08416829885641
P         5.69945445429199   18.24338592918017   21.71726049501818
In        3.80862739732813   25.60846392678825    0.99122415075109
In        2.73623710627608   27.00552581243151    4.68513189928676
In        2.51604422253176   30.54758218315041    5.44710840941849
P         3.31936237723468   27.53501225708880    2.37688251528891
P         3.87629157134847   28.64816269490778    6.20261129403335
P         4.60297500843294   25.54580037824942    5.41675655253584
In        1.17712004919660   24.09867731505509    7.22686295180300
In        2.22092881051383   25.66666016466665   10.59328916140302
In        1.92996931923959   29.16703320624051   11.91166704653846
In        0.71252272471464   28.15992051553587    8.42591628449303
P         2.12252006509176   26.16034385683198    8.16386310898073
P        -0.02845802349624   28.32742150798425   10.72170836023922
P         3.66707873613707   27.44490859811793   11.56373737798452
P         3.71137346189562   23.69879203344421   10.94617507613582
In        1.05697852414494   25.23166850318767   14.17544387933186
In        3.53974919359251   26.82604441899863   16.81897981652054
In        4.31922974472727   30.74199611412979   17.16729246465944
In        1.11549051109393   29.16106021970690   15.51901054505577
P         2.39944064182859   27.23361789500316   14.65551217023691
P         2.77634485166900   30.92763616217527   15.27637633265373
P         5.36900415034926   28.49509013550570   17.03658588305157
P         4.46356909283882   24.51154626669599   16.76256922214125
In        3.68791493428156   26.31543363879902   20.35653923829465
In        6.56741448450691   27.62218454144312   22.13893100038182
In        3.89264732076582   30.14894148536450   20.99868539169082
P         5.20740731701907   28.26271903476608   20.16188125691031
P         8.96465408611861   27.87780662654194   21.66672176711659
P         6.49662348332113   25.15537974725517   21.94911609463804
P         3.38188030109906   31.13629950139810   11.81418280341557
P         6.31571663473949   32.15084958642048   16.91566720202061
In        8.74308661529533    7.96610432330211   10.61561955780840
P         6.23729884051816    7.65868605658920   13.85674403236372
In        9.99327261129830   11.39202377594159    5.47347095206306
In        9.56264440699693   14.96020520468536    5.53611082838199
In        7.15206210286629   13.61362954163498    3.67139457922712
P         8.73503205205675   11.75227726054810    3.43272491036484
P         8.65646387407133   15.54580272160588    3.31117885316944
P         8.54220353786206   12.98036290278135    6.65656988311618
In        5.69270993344859    9.03315614537871    8.94636790607997
In        8.08250604406869   11.60514075951604   10.16338392166795
In        7.88936653870263   15.41135935719223    9.96616331894014
In        5.49602007070347   12.58663771458969    8.52896199420850
P         7.14087152167163   10.80110976379696    7.98895594065821
P         6.62102474462542   14.74328586881030    7.92529504621047
P         7.06009505375895   13.53638009148129   11.37210653168210
P         7.42272629914685    9.72122694492309   11.65417733290455
In        4.99906518886650    9.68868912177698   14.41723971363664
In        7.64750314519414   11.55898537431132   15.03988001600348
In        7.55932089001274   15.34432442657148   14.73761219693137
In        4.73973765008870   13.52387716561913   14.30700411740689
P         5.97688378315898   11.63820711196899   13.16980899327874
P         5.75116940622881   15.44481778873867   13.01073920905364
P         7.06728693957371   13.55687322196766   16.40880597012294
P         7.69123973219583    9.61749931643255   16.51023742148678
In        5.78494482808956   10.04863678789091   20.15194685720049
In        8.40434946812440   14.87444885913958   19.10982537485405
In        5.45725911236668   13.82381385023943   19.75159795867354
P         6.27240517922450   11.78875480363039   18.54825792641826
P         6.19576202939661   15.63415415521178   18.15133994974296
P         9.03430431925511   12.85171003293435   20.29415842919241
In        6.97678685954807   17.36345469247525    3.47416646762877
In        9.25882017006635   18.69151283810211    5.39758159842860
In        8.78053893285026   22.76454005679365    5.11765428821289
In        6.16155332208475   20.82151289955465    3.65338200470372
P         8.23573905343710   19.49451030219183    3.28428834716110
P         6.98391316902329   23.15129464648229    3.45584124584170
P         8.26836813676499   20.71673505897475    6.40475319809136
P         8.13959665861551   16.75963574609861    6.48977536073411
In        5.09648020958012   16.58583874824716    8.69838230001909
In        7.72405411725311   19.18263044616006    9.84985476702942
In        7.60110586817882   23.09121534205709    9.72195251539184
In        4.91793364130752   20.34932570207640    8.74409305970972
P         6.40906941223040   18.56183290806525    7.81293852766806
P         6.11083369444857   22.36904800315369    7.85075010873660
P         6.90928683762895   21.16341017594340   11.12030953614335
P         6.91828729853813   17.30652288826563   11.25827348699502
In        4.68173873039347   17.37366487534245   14.20821595690826
In        7.76697711784733   19.00448984040736   14.44462421492151
In        7.77072031207274   23.02774197199404   14.54158273196677
In        4.91116851299558   21.13172922389073   14.32918153567925
P         5.79110348724773   19.24945697011905   12.92795392453197
P         5.79258697935169   23.09045288220794   13.02373347652487
P         7.98299481733212   20.98992341243901   15.89068570269428
P         7.12842716152746   17.34953696621784   16.17066783049935
In        5.29926295993965   17.67124262228570   19.35095795527555
In        8.45996924310156   18.55082790379990   19.43901669906598
In        9.07870221739284   22.41492421627638   19.30400730990270
In        6.01106420928808   21.35725456800389   19.61883750902074
P         6.53503649065279   19.43423446714844   18.08356450740298
P         6.97896329618692   23.18474377131016   18.18760094600841
P         8.88192067185827   20.51783599601137   20.85648502225350
P         7.81979579661119   16.56962734661855   20.80840440667850
In        6.21381206732661   25.50878663063035    3.53200309559523
In        8.67071445439275   26.57406420943575    5.56327058347315
In        5.75626358463644   28.75757993032772    4.58625954795670
P         7.62712376148050   27.54469049728795    3.53770400583212
P         8.13738162370431   28.53129972572133    6.93159614828257
P         7.59964319362023   24.50766903272557    6.43724425046816
In        4.70184206694299   24.23641060964173    8.73990729319382
In        7.72512063722792   26.77387380062106    9.83679691538509
In        7.08446541643808   30.91912406353717    9.90351021754000
In        4.68554138973462   27.87163166010035    9.34455575272045
P         6.07002419068757   26.23979495211990    8.03748858157481
P         5.44002474717212   30.02246208309678    8.30443465809733
P         7.42705651148790   28.84757168627325   11.14178701580164
P         6.88121366363324   24.93364743746542   11.24365281764314
In        4.96555101499286   25.03302144858602   14.38740504575098
In        8.24211903921480   26.67475300320811   14.37877764736965
In        8.45965142723127   30.76421485179022   14.31906830200827
In        5.46179372290741   28.84364429371606   14.58289235051259
P         6.09306835818355   26.90746980421618   13.13284643296576
P         6.19114114822070   30.90832935744871   13.36723745872875
P         8.84251437633537   28.73363129189447   15.59315275925981
P         7.74297972243469   24.96410343110571   16.09873805352623
In        6.79075542943699   25.31981115095986   19.50417793049359
In       10.01365812027127   25.97200496220722   18.73113304496266
In        8.35031553337926   28.95647586972143   19.55983421012630
P         7.88604947759708   27.04410441211482   18.02103405478350
P         7.45224826924499   31.20954007672419   19.74484052219182
P         9.69848614736048   24.42272537234463   20.58459105553220
In        3.57561624740895   31.24143751523822    9.39054518447397
In        5.50586994568302   32.84673886419368   14.72953802319166
