10
 energy: -0.565248718765 gnorm: 0.000499927185 xtb: 6.4.1 (afa7bdf)
In        3.89516928867973    2.16120829313981    3.96121197469280
In        2.89669573622060    6.05480953415747    4.08447517833248
P         2.75819854512149    2.27830137426539    1.82529504282401
P         4.71990071791717    4.47348491511553    4.27843796173368
P         4.86764530957439   -0.07003348189522    4.26978404719148
In        5.56963118815358   -0.16633142290204    1.94957924581773
In        7.78097876598487    2.26323314107995    4.07687019037185
In        5.64030431495096    4.40059924373136    1.98342410462239
P         6.52786585089727    2.09140979730864    2.00292791094298
P         7.46499778249848    5.99759860600060    2.09809434347161
