18
 energy: -1.068742661415 gnorm: 0.000661414144 xtb: 6.4.1 (afa7bdf)
P         1.36406182856379    7.14606094664169    3.36374319003591
In       -0.32827169433144    7.02766914411952    1.67247121995660
In        3.24969336588366    9.75539317678206    1.98531620999594
In        2.98250251793980    8.00406962977493    4.98245930167659
In       -0.01401340627756    9.75542973831439    5.24969436976331
P         1.68756788788431    8.99779308729662    6.81826937461453
P         1.36874180383190   10.59344687170815    3.36901263502644
P         4.72010079768014   10.90821267287935    6.72052248929690
P         4.81871401583152    8.99791038253025    3.68774346369103
In       -0.30167549031569   11.25207869254961    1.69837272320411
In        2.87598678696459   13.53795067354490    1.79042680896211
In        3.03092891531590   11.50416267511702    5.03144714728917
In       -0.20877595992312   13.53807815336020    4.87535423354658
P         1.33010492336204   12.57196630858403    6.47709850843400
P         1.40407062760557   14.64640987295524    3.40493761455627
P         4.69966533580250   14.83299476703617    6.69911220222659
P         4.47737023001314   12.57202763948867    3.33052477798179
In        3.05115501405059   15.39798306738434    5.05135372975572
