16
 energy: -0.722882401784 gnorm: 0.000397621057 xtb: 6.4.1 (afa7bdf)
In       -0.61773059088713   -0.63333616240438   12.54125479574032
In        2.77440388372125    2.77819062087301   11.93620525451603
In        3.10265695806085    0.55902185976686   15.27072241749043
In        0.55203011061499    3.10745899743952   15.27295343475707
P         2.39958122715664    2.40479944907918   16.69798722217162
P         0.80318657136152    3.74038714589441   12.95173097219832
P         4.88506297193210    4.87245713169287   15.09396794006877
P         3.74818496490707    0.81537105640710   12.95415070647473
In       -0.78329929411347   -0.77491159292028   17.44391303199177
In        4.11613214021321    4.12294082339174   19.22676095412617
In        3.30156070627531    0.35027683647227   20.00260176253711
In        0.35021288514841    3.29340271153286   20.00370404495215
P         1.14847290555339    1.14144443569637   20.76281173486725
P         1.82002516554851    4.74621405973066   18.73980066965113
P         3.39575880760795    3.38873581988455   23.32532888006257
P         4.74414058689829    1.82792680746689   18.73738617839814
