434
 energy: -32.632529135402 gnorm: 0.000110203042 xtb: 6.4.1 (afa7bdf)
In        5.75402473549832    6.39371315712477   16.61923761991203
In        6.62087040122332   15.40914961649388    4.80702366614882
P         7.39860304163598   13.12805119325559    5.22057105502442
In        6.40119195229930    8.44489968015452   10.46910407470158
In        6.13378636246756   13.03009941482641   10.36198794049273
In        4.83874633798367   10.87674539266271    7.46987372018710
P         5.61335407852335    8.68252101977206    8.16098979827790
P         5.65040169192542   13.15648199312808    7.93268491568822
P         7.08487110926749   10.79562472194246   10.95693481957562
P         7.39745376892150    6.24481327933806   10.97855111379775
In        3.99966541554771    8.83311645923266   13.56513351852291
In        6.04174308636854   10.75406287489804   16.07993275706350
In        5.84831662754127   15.31122410761169   16.12809383698603
In        4.16783950606621   13.05524140292671   13.64333868400296
P         5.32943754624818   10.87286734127883   13.70406369537738
P         5.21277707687395   15.29794356417322   13.72759921643145
P         6.83537144731035   13.06502875849970   16.60189594484633
P         6.96941821374885    8.50516079651351   16.62179731854282
In        6.28169699717929    8.63856257327163   21.88398160109773
In        6.13561988293160   13.14906961128488   21.83484395520837
In        4.24829049470502   11.00761246977629   19.41803238647337
P         5.30864244203598    8.82602714295227   19.63916104484909
P         5.43353119081135   13.17446525441202   19.45272032772220
P         7.20221496204227   10.92778489943164   22.18752842547038
P         7.31873708177406    6.45823906890124   22.36303697991629
P         5.37447881123404   15.44809559135911   25.16971063442215
In        6.62514136114149   19.98188246360004    4.81730560916142
In        6.72413154455916   24.55247568885938    4.74671296848702
P         7.51916186706861   22.25534228628549    5.21872259936366
P         7.47189404825077   17.69352555695464    5.23010921190949
In        4.63005568360445   15.40992014094702    8.06822236196514
In        5.98121333431788   17.65536404493584   10.45418574560459
In        6.00225477056045   22.26962107617412   10.47080904258141
In        4.61973207351191   20.00057602624114    8.07416143983423
P         5.56395894309027   17.70718325689303    8.00759719643698
P         5.54099212538606   22.30176703805455    8.03371971644943
P         6.82759147853742   19.95859627904124   10.93131345252739
P         6.86191618555559   15.35857388021883   10.90854032421586
In        4.26655266018552   17.59052507763356   13.80704359883808
In        5.74373194071563   19.91652365890024   16.14236618458274
In        5.83258087622661   24.51087372613650   16.16708527533891
In        4.24075223742183   22.22061312432034   13.80615485602945
P         5.15012969593206   19.91087049746886   13.73105566627642
P         5.16477000624530   24.52276960961909   13.77808565676719
P         6.65632480448751   22.19738242683687   16.61923603879779
P         6.66480466286349   17.63247952758265   16.57123643032140
In        4.46199322641956   15.45049886402436   19.60804744974120
In        6.08764636593969   17.74371696360702   21.82391287301969
In        6.15662863044489   22.29101263980573   21.87823637566747
In        4.39318054023729   20.02723151901668   19.62394025343118
P         5.37406781269900   17.75338172447656   19.44466439867047
P         5.32776117123371   22.32247205291100   19.53699912675586
P         7.05403728529042   19.99671251755865   22.30101834386124
P         6.99465376969308   15.45384026276778   22.20620725759777
In        4.75367486937602   17.75555548502681   25.42915228558612
In        6.96896026746848   19.87260233105108   27.59353559884593
In        6.93094759915798   24.35260116363111   27.60748224216833
In        4.76432242107562   22.03704053094433   25.37407423145845
P         5.98223622758849   19.89097184234626   25.30976661292940
P         5.81972647228143   24.23508321018301   25.41877219133341
P         7.99068216947475   22.12025738207090   27.90171688347128
P         7.83396814530846   17.58325359735970   27.82291182193942
In        6.58919158224690   29.02522870425248    4.89519165313011
P         7.05008857027132   31.29289476505635    5.53679971519474
P         7.61987789242352   26.81110468068781    5.20328595493105
In        4.46837741088099   24.52581124159194    7.89466626239651
In        6.12699001367209   26.81588576233683   10.46757264235097
In        6.22722496709841   31.40942124640471   10.53656915788592
In        4.10153495017769   28.75318077991741    8.09653114606759
P         5.50627617790283   26.75908913767092    8.06850646828733
P         6.98757465331661   29.09558247673391   10.97294865212753
P         6.94875047201363   24.52155803723123   10.98821543673187
In        4.08989858699537   26.75224246451013   13.71039642925559
In        5.97829411854024   29.07012086436029   16.16870616024037
In        6.11789108994185   33.62363217687961   16.10857186158565
In        4.13417017329577   31.15214314839952   13.73044407586668
P         5.22912656542344   28.94338206213912   13.80602770573393
P         5.20040503915788   33.33890434061593   13.85288833286609
P         6.92567404072292   31.32763849442842   16.63934147330340
P         6.79163489846594   26.76297010560675   16.68017638223144
In        4.19077291004537   24.52115601556523   19.61987928940004
In        6.20589253769496   26.86207365897191   21.97927887861398
In        5.84413998052682   31.15102741442723   22.14128746928208
In        4.14636871740735   28.85699982483705   19.45266525116861
P         5.33548898826502   26.71049192331559   19.65712261695660
P         5.08460136339986   31.06576047039409   19.83151921857549
P         7.21886247545612   29.11429948812056   22.32231133635606
P         7.09474805485595   24.55652723745123   22.35918821301970
P         7.92048236299356   26.57781066718045   27.97546447451816
P         7.05414365209063   33.65719306043248   11.01729394165231
P         7.17137293421276   35.82388289737711   16.42602163960376
In       10.35483800513270    3.90165552012314   10.79711837738767
P         9.77152944603450    4.03018386383617    8.43658926161850
In        9.67319822715198    6.07644236174475   16.27533589497339
P         8.81334981205775    6.13840712055960   13.98256415515444
P        10.70566714490353    3.89937430272383   16.79900489821086
In       10.25312165933781    4.03462733710553   21.89150146842672
P         9.19549013652234    4.02264797906437   19.69403874668557
In       10.39848731131060   10.50354185534694    5.42399353013483
In        9.98655787039379   15.27643235888909    5.28034274620387
In        8.63175131318746   13.03865552038034    3.10867378648566
P         9.52952849019368   15.32598009023168    2.85327543065701
P        10.82394575209654   12.94096029747314    5.55443545934479
P        11.93909227625419    8.66202608302554    5.59065644871953
In        8.49817456016530    6.10966743193212    8.78571521644264
In        9.76209362267340    8.49944947107459   10.90130131746675
In        9.46385869834389   13.09788387652654   10.72876687182145
In        8.15881705752821   10.73213138422260    8.72114721136526
P         9.19075655055490    8.47750685294987    8.49865631751859
P         8.84239435877375   13.09855529263508    8.32817861977485
P        10.45137282521778   10.86675363360499   11.24755998308279
P        10.83107196875143    6.27904991841053   11.24144909222360
In        7.88217679458472    8.39245580797752   14.31927288258332
In        9.41123560183090   10.69484468787305   16.26387097104931
In        9.23058668917919   15.28519386633737   16.23073141375050
In        7.70680047914044   13.00479627056534   14.28187395942962
P         8.63242087883197   10.72703797850133   13.90954660390626
P         8.49159533608139   15.32568368586088   13.86302867895685
P        10.18583366516729   13.03020875402028   16.66714949688572
P        10.34009976067798    8.43264231182012   16.72949301716548
In        8.06663899258043    6.18950066695967   20.04260420203875
In        9.73919986254851    8.60991731052137   21.80304896033387
In        9.58673315501368   13.22326965725784   21.73779096418481
In        7.89689772921654   10.84461256793948   19.81774134720428
P         8.76127152344053    8.52474966622424   19.52432697263407
P         8.69261294683306   13.17091315296783   19.42922205850317
P        10.49055477143831   10.94915890475058   22.16275600072236
P        10.84057820143004    6.41074916648560   22.13973908538926
In       10.63346396820313   15.25867665974496   27.22520545362709
In        8.32492189285077   13.00701702263538   25.46644860001756
P         9.04684031427656   10.72625076825825   25.22999231645680
P         9.36495257863849   15.21209373862894   25.08389403948130
P        11.63238363003381   13.01108889676513   27.39741288707594
In        8.66596867093708   17.65244631891011    3.05007911596259
In        9.93861521881982   19.93396179587003    5.31009359743773
In       10.02634564755354   24.52613818073001    5.33631632880346
In        8.73783905116103   22.23158813459313    3.05170453062498
P         9.66169956910670   19.92779016116945    2.85323077445161
P         9.77957095226919   24.48626606700425    2.87530553430371
P        10.87100132815503   22.21149863793270    5.72326521613847
P        10.78749626205696   17.61481577808930    5.65888699373766
In        7.90975718587929   15.38680272015806    8.66572333907227
In        9.30875462222754   17.71779365379103   10.71510718124145
In        9.38016238276593   22.30389328159011   10.73338574825563
In        7.87036547281755   20.00310060592772    8.68650156220765
P         8.75089569772847   17.70370212086127    8.29778274063016
P         8.81185352623569   22.27858768645567    8.31874036089250
P        10.17517396315518   19.99510544410224   11.20762667687688
P        10.19813223101382   15.43706707267521   11.16491622224837
In        7.53127629838854   17.58607166351236   14.25258306880573
In        9.11457346806228   19.85192155049337   16.24595172316695
In        9.16985990533581   24.44754055294649   16.28211717471721
In        7.50127453825608   22.18144538118954   14.29088005235017
P         8.38436235304155   19.89265828518894   13.87555623587999
P         8.43126058238677   24.46001763997826   13.91302376107346
P         9.99343323911273   22.13799903608694   16.69683303407244
P        10.05678390933930   17.58977666984597   16.67005663874864
In        7.78832237903268   15.44900024406756   19.86748577496561
In        9.51051638982512   17.76561415389890   21.76682242235146
In        9.52178344774452   22.35976866964882   21.79311230027671
In        7.72041680628497   20.03623710352204   19.91368209877817
P         8.61351484995163   17.75848392114296   19.45483202387830
P         8.58361611005095   22.33097493385490   19.49625221246363
P        10.40218684568989   20.05626845824349   22.15198425116864
P        10.48421405455835   15.50289422881563   22.14924702261255
In        8.42444684091066   17.49217158979499   25.45149339907611
In       10.41132183754657   19.73892766353538   27.26235384315398
In       10.37294924628701   24.35631032821199   27.29966198635168
In        8.41987174932564   22.13123260064982   25.46310449859865
P         9.24653134979249   19.81134344617507   25.06909887485714
P         9.19957133084778   24.47745392887602   25.11390611466722
P        11.30365307900164   22.05354559405216   27.49592774163303
P        11.58833721745957   17.54776633938260   27.50786917562603
In        8.86654955051369   26.79378209633155    3.05040543362060
In       10.27800255931922   29.18695806224360    5.23636327300985
In       10.06752787437392   33.58769986175011    5.28745073848462
P         9.79293014203340   29.06362443272661    2.84341360817719
P        11.18318555448871   31.46142208190508    5.72359266819122
P        10.92972013814676   26.82391955682412    5.70367412484103
In        7.94716972890224   24.57874373260318    8.71797130919434
In        9.43867806315982   26.89983320213871   10.73177544998640
In        9.70452320961808   31.56076022713421   10.80536350835327
In        8.01933655911997   29.18255641438593    8.72001117999585
P         8.84517828956244   26.86804967802009    8.32320963614321
P         8.83398654358271   31.51982690589278    8.48919809713743
P        10.33138049996907   29.17777074192412   11.18933545460465
P        10.23533463761310   24.58916998607633   11.22143083380461
In        7.63007647145614   26.77436534835921   14.34598114988982
In        9.32141869502236   29.06022994277381   16.27472849337110
In        9.64512741305255   33.64179252684754   16.15487362865211
In        7.78505866827494   31.36898119988939   14.31678248864708
P         8.56094027668022   29.04029670694103   13.91249302269264
P         8.71723344588626   33.63222691277932   13.86090808820739
P        10.31897879384419   31.30644293475098   16.67561877481477
P        10.08328574644850   26.72992604450571   16.69880316399671
In        7.77640025370515   24.63555007940279   19.97951258667133
In        9.56544731781972   26.96273927114605   21.79362653020695
In        9.77481518152786   31.56668507696052   21.89788140313320
In        7.84590138195325   29.26915704356613   19.93024039421099
P         8.60180575849220   26.93293130035060   19.50738655676664
P         8.74625523415049   31.57224458315980   19.63791793188693
P        10.53889322992800   29.21978293651038   22.21958855139319
P        10.41462705118536   24.65069551050420   22.17907693480275
In        8.37514687129739   26.78211590238464   25.57661797747782
In       10.63633031222424   28.81926055256064   27.38286271734620
In        8.14338024409649   31.00387075058769   25.68093574965989
P         9.45313072878258   29.00185498698625   25.19725843728081
P        11.61766310624764   31.02707311069432   27.80757493445115
P        11.55484753076602   26.52338526874490   27.59599718427947
In        8.13788371126011   33.86276978875814    8.84477480959830
P        10.77948166433275   33.76468774768434   11.04733717236214
In        8.11837099506872   36.02320937056164   14.17571112176439
In       10.30927484475293   38.20114492947079   16.35678319763396
P         9.33781556137358   38.16161684019635   14.12855860958940
P        10.82074074099904   35.80484312273077   16.42718040986137
In        7.78376788404020   33.81275199339004   19.75764287467739
P        10.85566565263321   33.77118320664496   22.07792080021561
In       14.08183392932232    4.31978894430862   11.28919845398200
P        13.28516567064839    4.31064773886263    9.00178127843185
In       13.22927945380519    6.21915550845334   16.40929456766399
In       11.68602652992326    3.76165850702626   14.57234804135726
P        12.27916175273847    6.11829256904659   14.12817892204580
In       14.06060222288186    4.67910372622115   21.43979568445939
P        12.68178444191378    4.31959391702630   19.47365352810790
In       15.19491974290353   10.92790390378781    5.23888550145034
In       13.28609287929661   15.19096674851913    5.75562099157943
In       12.10223703262925   12.99494701598520    3.43560693403728
P        12.91143707612138   15.31993287689375    3.31095597310918
P        14.39949291014583   13.02108723440721    6.10032424281410
In       11.98962075582849    6.39700659496183    9.05145098774452
In       13.14906070185891    8.83454294242995   11.12546654467552
In       12.76514579707765   13.41559387703824   10.94709587826156
In       11.54343984375513   10.87606223016741    9.02819169600215
P        12.73648131480619    8.73498262970243    8.68865813172109
P        12.11627753075559   13.23560453890245    8.56250251324443
P        13.82275628368253   11.21377264845073   11.39677376410387
P        14.43013672709237    6.74137813561281   11.47324213753005
In       11.32395872527468    8.38237200035288   14.46077629520230
In       12.77411670287573   10.82586946194365   16.37195772371538
In       12.66380490227891   15.21466812169377   16.25496351178305
In       11.03981105883156   12.97976276331917   14.34388994197404
P        12.01863969005211   10.72880876132903   14.01672736659914
P        11.89009925341825   15.26450563875391   13.90480137864895
P        13.82091893327659   13.06105296272373   16.64664282365118
P        13.76342422104774    8.60403816843281   16.83297868706184
In       11.42472479455651    6.41950215382602   19.73617988080912
In       13.16827933402844    8.87834839560264   21.71459629682500
In       13.14679394443595   13.47291018445073   21.57313181967520
In       11.27524647532952   11.03083730103471   19.82039081860528
P        12.18806392702235    8.75808038525423   19.44367191724461
P        12.09562737624563   13.32288697463175   19.33777698549319
P        14.05426248654880   11.19017287068308   21.98368916283794
P        14.79166739960120    7.00541996318405   21.66327823225642
In       12.53229216328057    9.53389053893024   26.84378772036471
In       13.96530085397202   15.11990707169821   26.54332849220938
In       12.04864282818176   12.78802880190919   24.98572822618059
P        13.13665755426522   10.55733070635652   24.74504956329409
P        12.52241188156578   15.20419265855321   24.52507052496184
P        14.87178490330995   12.84238744294810   26.64248429300950
In       12.01500972519681   17.62448421683403    3.50172042277211
In       13.28166387742715   19.85684905681799    5.75498938731250
In       13.40812396524723   24.45016089824905    5.86504824339582
In       12.13606921064503   22.20013520511986    3.58611138426995
P        13.03093921129467   19.89231001606384    3.29721595616788
P        13.21404547521717   24.43318907542456    3.40513697033717
P        14.15614591340586   22.11811039447946    6.29151400123702
P        14.08085031829601   17.53323520166900    6.08172059763790
In       11.20352838141112   15.51120581270226    8.90445964849881
In       12.62919634103604   17.81264454821533   10.98041279116088
In       12.82918719016182   22.36439052032200   11.03290785209026
In       11.22249112661971   20.07133332945627    8.96725225898253
P        12.10391807608031   17.79020654418189    8.56087048553942
P        12.19361133004188   22.32866549425063    8.64520991827142
P        13.57156123367295   20.03950320506670   11.52537762317025
P        13.79715315963828   15.64865243391268   11.21767667088944
In       10.91634588238357   17.49599841200000   14.35097704194257
In       12.44668583336160   19.75212154225827   16.34622204229495
In       12.52693986124785   24.16846342344042   16.33987110568886
In       10.81366320847240   22.07785537553366   14.36254858951981
P        11.71729105810321   19.81043983294447   13.98127758185482
P        11.76274870877906   24.33504430008737   13.98875178517691
P        13.57419331608683   21.94269869282549   16.64523149721244
P        13.51589425635522   17.52922908960225   16.57312097629883
In       11.16004785098009   15.58367948690959   19.76783417737157
In       12.90649252628196   18.06252751011934   21.56374111702354
In       12.97122474979069   22.51362159430055   21.62796800942388
In       11.06568776961003   20.17929978601887   19.77086437113242
P        11.91650087419869   17.89693479567705   19.29674753454577
P        11.99394642644601   22.43647069521330   19.35794852369904
P        13.97858058868985   20.26567933661088   21.88475289696099
P        13.91164594716407   15.81295573498104   21.86495519058141
In       11.80261700851134   17.54428558231807   25.03430851262974
In       13.80674126741528   19.87760192015813   26.75875504254371
In       13.89952129727170   24.10688302179378   26.97105726054305
In       11.69485722693658   22.14776185974522   25.05594091235074
P        12.58372635072418   19.87469453518210   24.60700733281466
P        12.78686612481216   24.35898419666842   24.77804158153051
P        15.12043414279150   21.95077190305291   27.10630676620698
P        14.55556654450181   17.51353789533980   26.77979102599184
In       12.22296018414874   26.70908436014906    3.58952576804829
In       13.53708710731571   29.04965684082920    5.87849635849155
In       12.47843127266938   31.35773861391042    3.62021187444511
P        13.15179333432778   28.99990039875895    3.43375463141038
P        14.84258843069739   31.10520315738734    6.04586010402040
P        14.32001312667753   26.72296841604143    6.33800834979464
In       11.28169704416254   24.61566194440805    8.97901215756873
In       12.72879239364330   26.94410450021166   11.00375182272223
In       13.23741426540397   31.35902926027266   11.01479045752109
In       11.38532333620764   29.26824999911662    8.95103397040515
P        12.12876553767600   26.91890974100572    8.59773138638793
P        12.37234001510617   31.52667790151266    8.69582078647262
P        14.00491988352984   29.02683283517376   11.38842886948893
P        13.60232231074585   24.67265890489358   11.50779433727489
In       10.95498613504896   26.64418443706104   14.38322568367667
In       12.64932939959999   28.80552460732859   16.31422423145742
In       13.08215162230815   33.13646087571794   16.27040553857528
In       11.15016165640331   31.19502708683510   14.34378365457065
P        11.93124224293229   28.88052548085831   13.94686608251404
P        12.25257619447621   33.37382163347645   13.95661673636999
P        14.02548658436196   30.85063374369022   16.41651795818790
P        13.38366151047436   26.47388784541464   16.73596706949060
In       11.07689967302773   24.69705388766747   19.79520914913637
In       12.86440137566271   26.98671981646510   21.63294748477243
In       13.14118485840965   31.40232044514355   21.82917008300718
In       11.22848304560555   29.35073909308828   19.83626511399738
P        11.89123188775361   26.99708229732830   19.35847156308744
P        12.18231680591070   31.61983148575620   19.55225884446200
P        14.08304910462806   29.11626946106541   21.96089396667990
P        13.91374139143836   24.76899737961563   22.02003977729918
In       11.77274037425500   26.59581615300515   25.13109648439766
In       14.02352739431332   28.52592590327874   26.79426676902505
In       12.08632037421415   31.25802827718608   25.41942632387592
P        12.62295993743018   28.91385317063828   24.78874782004166
P        14.21335700752097   32.44250386949969   25.44491631805634
P        15.04413419923486   26.30370252113477   27.13906493905020
In       12.04011980799389   33.95172970645584    8.97394122865684
P        14.81916404768662   33.15144703804146   11.45421390323189
In       11.50535739535015   35.72730943481638   14.05032826038245
In       14.12152485796622   37.08651868121982   16.32244146906498
P        13.24349572565035   37.45791719811583   14.09979651716318
P        14.87469658804151   34.79218118367134   16.70503488015647
In       11.78677923967103   34.03420845897378   19.85039419422096
P        15.01802586432262   32.88561157702448   22.41418083053218
P        16.15322238703727    6.53343952243492   14.41888210401593
In       17.85359154484187   14.55995251794655    5.12275540140255
In       15.96352587036110    7.34369035359846    9.64954988513308
In       18.03902735397791   10.85638800662535   10.88543636395022
In       17.52782346884795   14.70873483604763   10.55955338374375
In       15.05720579505101   11.68829902434586    9.28356594746375
P        16.54603974016678    9.70198420259856    9.31495715938001
P        16.08465005518833   13.89257561818722    8.71100093943111
P        16.91437951863100   12.76334306719955   11.96212346230344
In       14.85045722226789    8.57866605593555   14.60863850079393
In       17.56689250111198   10.38827247355251   15.33075450257737
In       17.23743361121441   14.56329913852627   15.33539653563073
In       14.66739919732652   12.80821280555837   14.33309540643032
P        15.78771184052216   10.66747575191925   13.60785535587289
P        15.56019258409182   15.03126249006630   13.55480024273266
P        17.15039907115931   12.45875642185061   16.58754362544577
P        18.21787628660313    8.36538172077591   16.51956293213883
In       15.89913315908991    7.78691326663372   19.62569775420298
In       18.12413231613325   10.90460127727643   19.83966822120626
In       16.80278684251759   14.40665056115638   21.21615165371038
In       14.77192595806320   11.50775421399423   19.63246490307109
P        16.30920778354503    9.92745864000481   18.45507195466850
P        15.47712477535304   13.85725651686596   19.18546803719153
P        17.34887434215954   12.08179745106195   21.82282756193340
In       17.09116146371515   12.94428014080615   25.66560105063353
P        16.88705244198463   15.13259199160995   24.62960370698861
In       15.38801313466353   17.47030347375254    3.97788135746436
In       18.00980711340078   18.90376405018910    5.63864480293129
In       17.92472327940178   23.19342605504119    6.54643281447180
In       15.52636966691722   21.99110487021250    4.22413460649960
P        16.43452134100884   19.70338852296045    3.90473158251627
P        16.72365689574005   24.13190935008883    4.62645470048033
P        17.59235686588706   20.84616558289232    7.08381496928227
P        17.70274848179838   16.57903810666257    6.41477091342741
In       14.94803222973020   16.08366638411045    9.06221328274773
In       17.77297872057693   18.58295930048651   10.05563146573741
In       16.59434638744564   22.90571662041574   11.19432506361815
In       14.82420043884003   20.13143079990863    9.39890978304383
P        16.03153371698438   18.23321419196093    8.30541745760154
P        15.44714669615166   22.52123154062271    9.02222937033137
P        17.66902391609974   20.69771966904365   11.29014727268096
P        16.92554239306353   16.87232798846673   11.60308661484941
In       14.53241374361462   17.18522291323739   14.34391174238798
In       17.28031444947483   18.72895476589659   15.33513971843700
In       17.12907693471498   22.86568996008035   15.63927825864286
In       14.54342333786706   21.40768809678190   14.42857736200953
P        15.60681320759796   19.30859918266156   13.58630687424968
P        15.37730089624687   23.73813672420928   14.07818408583500
P        16.93929212775404   20.69217777380657   16.78227761070080
P        17.01803233888356   16.63369736833639   16.61601628609321
In       14.69570063852103   16.20501866032592   19.54188787588727
In       17.32715596724000   18.68335377023556   20.33963980146650
In       17.23632636531806   23.15526249392874   20.51319462249187
In       14.68512240173447   20.52900156595796   19.53363477045015
P        15.56747670471502   18.36924920997708   18.61221931960761
P        15.50487947047879   22.78791167559779   18.77153603023683
P        17.28446799531235   20.88337281685389   21.46548257618000
P        17.09812376190298   16.77831169155550   21.89150222395170
In       16.77744967041818   17.33841844455617   25.72463023923838
In       16.54539531890210   21.23242255861283   25.22301597353807
P        16.78639792468431   19.10234172316547   24.00771306071844
P        16.58473855908279   23.33645919525449   23.95447585091440
In       16.06387555008558   26.49529651966387    4.60875021054209
In       14.78752867440601   24.90841516310445    9.33343329288434
In       17.87439622923161   26.91419882872022   10.47900119215830
In       18.02538188091159   31.19989471818392   10.54200299334322
In       15.32327485015396   29.04830944433064    9.29727440673392
P        16.22294771003135   26.82742625272260    8.64458819134576
P        16.52722078448766   31.09431648911881    8.64077977080408
P        17.94165797992753   29.06375412489554   11.68265924140692
P        16.84598753696342   25.25497115226141   11.98011378212600
In       14.42152565493837   26.02769142614797   14.52592896145003
In       17.37835838970816   26.91878728295369   15.31884914617515
In       18.34073900072524   30.72168634358413   15.43669292763895
In       15.11043840746015   30.04961667891652   14.33718434379451
P        15.86610682038087   27.79466836555667   13.51799866829055
P        16.83028344927017   31.77280915136495   13.79719573647489
P        17.21345315795056   28.96379603334336   16.69586718741478
P        16.69189520911574   25.01249687292980   16.75930852065032
In       14.61612877055861   24.96897462885357   19.65309126062918
In       17.68203345237044   27.17547989686839   19.99879647884582
In       14.93058490628867   29.16374041148251   19.64472797067064
P        15.64520922673029   27.00904148186507   18.58097085180885
P        16.15116720481615   31.14853366553642   18.80994867288758
P        18.21923171051107   29.35392617574124   20.91046382298146
P        17.31105716159396   25.35977572922353   21.60489035936159
In       16.45020043910137   25.38375940822545   25.31594685695550
In       16.93562706886205   29.03952476751959   24.55109262526218
P        15.58412888680539   27.16471796556668   23.84376643757887
In       16.24614261028828   33.89781277688673   14.88581405716049
In       15.73458434610088   33.14594165577062   20.11804951031706
