166
 energy: -10.408296914009 gnorm: 0.000788715381 xtb: 6.4.1 (afa7bdf)
In        5.92772460785125    4.14866790234310   10.98216730282351
In        4.37699359873735    4.09041606323350   14.76775847904184
P         7.27331910987679    6.56870866496829   15.11353475955639
P         6.18388409350166    3.38127338816997   13.28116859098346
In        6.26228188168035    2.88560892417521   18.21756623172104
In        6.26340774534128    0.67268272484464   21.55785138228426
P         4.55427628761825    3.52715534400748   19.80999261058805
P         8.05709695410438    4.21079171155629   22.52936483810248
P         7.62969228298117    1.42561739179304   19.66446343077466
In        5.76475700540144    7.49646304836555   13.43903261391071
P         3.63715643812632    8.37125536674786   14.21070971831257
P         6.63546858734575    9.74025477604233   15.91181221200363
P         7.39850830617941    8.82079068512436   12.14621654461761
In        4.91689543300637    6.87323968796547   18.32729379564260
In        5.91923803143399    4.70234554203846   21.46574133670164
P         5.41913815630085    8.14921370253145   22.44883569994511
P         6.83741865338752    6.06874683858612   19.59487380664216
P         7.77195292278682    0.35318702372107    9.09924428108632
P         8.57876614051601    3.56617160274264    7.82338474778495
In        6.53421738908993    0.96405898668011   13.33550724339603
In        9.91976736655122    3.09510699774413   11.30369030472334
In       10.19265246594028    0.63622548173334   14.71503066735136
In        8.18394226200035    4.39422894249233   14.40215677311228
P         9.09347456321469    2.53710770908688   15.74229316192747
P         9.43758492862631    5.23054295910537   12.40503095295264
P        11.69319132809467    4.72757350629052   15.39975628034142
P        11.20827220294139    1.42192734545035   12.58963153109757
In        8.30077409056414   -0.48465683146498   18.30111612466721
In       11.26758699934880    2.58355352483094   18.31449502776301
In       10.85685732030916   -0.79979771116594   21.51393984556371
In        9.29069159389088    2.62588883588432   21.11801943406851
P         9.83475132805643    0.94823314248067   22.84273408250496
P        10.30419262516796    4.40825738798261   19.68773294083305
P        11.65797539378812    4.09451087963845   23.12428368545071
P        11.88979651365342    0.69452198343895   19.81462721503044
In       10.52918304596043    2.83170558588349   26.48273647169588
P        12.18209947480745    1.86418057956937   24.98154590314397
In        8.86942256355145    5.86445390720207    7.13033872409020
P         9.16657299021117    8.23203804704673    7.33404056554932
P        13.19129195541512    9.41356984823678    7.31185785627152
In        8.57025788298601    7.02971565194151   10.97756179359171
In       10.92019323658913   10.08051568744938   11.10998686216256
In       10.96898296200972    6.53351366840058   13.88808084337860
In        8.44333410299329    9.62840492644590   14.25659255170152
P        10.04771412486218    8.18702631177759   15.45899493024896
P         9.83745960244189   11.21026709656852   12.95945140600183
P        11.98345756899344   11.10534964472042   15.69848985308980
P        11.95219559136901    8.09739720204887   12.18156535264776
In        8.89148350597119    5.82908409340830   18.26656562838689
In       10.37135480453725    9.48990720785866   18.87961693765456
In       10.93166067473237    5.90943524443954   21.59443487675100
In        7.51773472248169    7.83511183933137   21.23637335264594
P         9.22623596894286    7.18411975882713   22.89538445184315
P         8.04445834560420    9.53181996616088   19.52984803630675
P        10.53980845758457   10.37709306652180   22.72579632977916
P        11.66193619398825    7.70116838857492   19.98418246907326
In        6.81566414039591    5.46033743847691   26.03110163253167
In       10.26568611964838    8.57515435125242   26.31831721339729
P        11.04442807804221    6.55849367118398   25.22111874326102
In       13.32688118943632   -0.52554788403445    7.45503325409058
In       10.60540463039681    2.32993847216461    7.32488750903324
P        12.98328151821545    1.83493712890377    7.12329312185906
P        16.45214575637060    2.94561409347049    8.81685328288530
In       11.33331485982271   -0.55104315755087   11.13752028445916
In       13.64372522134984    2.61546670916357   10.65679143256747
In       14.23683695370984   -0.44825295182303   13.70034954855793
In       12.65041965514041    3.04931815989171   13.86651841742096
P        13.84378812344265    1.37546999788103   15.24642436946093
P        13.29519208534182    4.64906789899516   12.04118759438897
P        15.40121213565389    4.41788588420723   15.13941154648337
P        15.06838721699735    0.98466490119740   11.86337970970398
In       12.51336953702391   -0.95176445482014   18.09169239392871
In       14.60913437973575    2.55460671950308   18.43158130306146
In       15.11810069025131   -0.64288683854113   21.22865193356274
In       12.60357132191242    2.41617248272174   21.52832814711287
P        13.88979471840190    0.71054416259144   22.82195171568288
P        13.52069701256078    4.15779298101439   19.96700416616330
P        15.68906132210269    3.82929315216018   22.90309867996120
P        16.03634701869414    0.76391289081942   19.40397420334605
In       12.80568080769056   -0.11246071260895   26.25692209235192
In       15.45192595414265    3.13604206093197   26.25065070344141
P        14.32614992735148    5.04062404370999   25.20094667551060
P        16.94402474669632    1.88421665005703   24.76763207947783
In       15.24483131056689    4.48217029621413    7.37003715671504
In       12.77725612573225    7.24752161337395    6.37405762807597
P        12.92469845206249    4.84702992796895    6.71762622383933
P        16.33945648226117    8.29750220704566    7.44197211151666
In       12.48062829689973    6.38467196829123   10.47832006579855
In       14.90017687325429    9.73189426478469   10.76623924778121
In       14.31415118529947    6.16489218149119   13.77040787178348
In       12.88284794977786    9.52110350007768   14.04488250513080
P        13.66352416833279    7.73399709414975   15.56257709379933
P        14.11651586839180   11.10592808862375   12.59914309662160
P        15.86465486054976   10.84345735022406   15.70927621567368
P        15.40390823909539    7.77736929916771   12.18575610743478
In       12.77580205562818    6.03709569686905   18.52598917588897
In       14.16754709708187    9.40153950237025   18.85357240577262
In       14.54903310257218    5.67720124993130   21.66130441529471
In       12.46647713960853    9.11359844689990   21.88838124396600
P        13.44016584212050    7.26588019119056   23.22317386771389
P        13.52568452901106   10.95041683718317   20.61651480115183
P        15.03085113404957   10.23791250558500   23.88703002867299
P        15.21470935048030    7.54044205628912   20.11798136727943
In       12.81366044432200    6.02945784381738   26.84758971825834
In       14.93653116820841    9.70620888072801   27.29514928138170
P        13.60195160096265   11.56219894759390   26.55835190238329
P        16.39891605889725    8.16634079219239   26.10979632087017
In       17.99890730363686    1.59086339066515    7.52820702798358
P        19.89406721373719    0.16333282130972    7.84655767189917
P        22.52697291780375    3.14695093600587    7.93510459002940
In       17.19705328729815   -0.01912832175490   11.18771337937776
In       19.66899289632934    3.21276171873330   10.86804720119786
In       19.67617067835823    1.45339730091785   14.22955878730737
In       15.93401817069480    2.92232911355935   13.24236703470491
P        17.28884621976473    1.40454108508922   14.63276735399398
P        17.61954078090626    4.14945444903560   11.85738552937875
P        20.06630973762399    4.76532715517237   15.97452323650198
P        21.10763130519136    2.92729106686279   12.85751375919914
In       16.56621742130897   -0.81178878593608   17.59128041105506
In       17.84460947287999    2.84386381374125   17.67308926884782
In       19.29888540683045   -0.37904832111994   20.34103676646670
In       16.78842297409667    2.49727737877226   21.09041631476594
P        18.27092738470034    0.81758390628005   22.17736922696652
P        17.10532376089763    4.37907559182910   19.47627286748073
P        19.38182948273633    4.14997069580311   22.33101197422452
P        19.59305597709211    1.34090422713959   18.59908838336996
In       18.07572684898368    0.23798630719007   26.12024842406949
In       20.78518256106792    4.54421925474318   25.64738971688054
P        18.49777107389250    5.16940689389402   25.20663631172563
In       18.55112981357123    7.38804078499114    7.53137955434138
P        20.14803348078358    5.61608928657021    7.70997523374975
In       16.52560403936537    6.07877689371931   10.79706248921117
In       19.30503575490328    8.57391473761168   11.63015236217499
In       18.69023550401679    5.11084904752666   13.93173797475921
In       16.41668147481692    9.09028289774055   14.07724185872994
P        17.48973649738686    7.03224825259820   14.91099914301282
P        17.99416671929397   10.33768687825446   12.63986969191346
P        19.98935055517404    9.30649202276893   15.57060956106503
P        20.25609040532292    6.45609497465816   12.50366049489168
In       16.18889633989124    6.29831392471721   18.21262231377386
In       17.85948622469920    9.75526851016704   18.63470696234700
In       17.86458452382186    5.86356651172176   21.35354296253967
In       16.03356221325888    8.95985472477017   22.02026910411132
P        17.11142260962281    7.13450305055083   23.34413345927125
P        16.95296308811397   10.78749910480565   20.62915193537357
P        18.84399222045849   10.43146925384440   23.77918362836878
P        18.60155552828060    7.80562206824308   19.95747068899659
In       17.59666870055885    6.32452034068375   27.16341544351623
In       21.06665674322059    8.96452837169944   26.80977853134906
In       23.21677283807520    1.92219007032847   12.11437451142844
In       22.08966364653028    4.48583011924887   14.56538275650628
P        23.92232379135970    3.42776298481536   15.80310663419145
P        23.63722262445241    5.71076706489321   13.03508248661221
In       21.84837196445691    1.02604324892602   17.70376512760696
In       23.34555460505718    4.61286853668257   20.59593462866686
In       20.06757921775053    3.26340022960767   20.14066486754531
P        21.67812134135543    4.64512395163918   18.81720643254516
In       22.21677236936890    6.00287152730890   11.06909308070823
In       24.99188283385397    6.80378712399853   14.76163174646900
In       21.40308573976010    7.68248095615268   14.40428826313430
P        23.05447381953477    7.15077232343960   16.18303773617462
P        22.72523950462789    9.19593323577894   13.00450623566420
In       20.58130288028039    6.84128989046876   18.84874878620466
In       19.61566789244969    9.01157869521586   21.93087145443647
P        21.07077302396132    7.25113717014337   22.79527705867129
P        21.07493225515066   10.40982221228590   20.54550510639562
