132
 energy: -9.338681359204 gnorm: 0.000155028150 xtb: 6.4.1 (afa7bdf)
P         9.59052190780347    5.37235800363733    2.87093343904791
P        11.69919798061563    6.51579773668190    6.05175307233259
In       10.90944286467884   10.59859699915305    2.40137399298517
In        9.07511123306831    7.58339897893901    3.73341499607979
P         8.68768644984680   11.48401824120666    2.88635673146899
P        12.37498950472546   12.12080636466501    3.75432758345774
P        11.25756550160267    8.72617310477138    4.03421031897165
In       11.83645151999168   10.49217634474036    7.61864158031960
In       10.41767166376226    7.46256808189927    7.98180434752972
In        8.43754748023624   10.07914423782927    6.91743444643379
P         9.00692016283684    9.16085113557304    9.10132581771511
P        10.37330600394595   10.99024274515845    5.63869236149862
P        13.98758221760986   11.54829295473974    8.36156800420518
P        12.21254901211990    8.64438499293003    9.28018535862045
In       12.24243664098974   11.35843433761098   13.32628644597455
In       10.60416039743954    8.11208227962133   14.56343080235931
P        10.86154117004879   10.45371962556854   11.50054000975888
P        14.22773914883238   12.85846526313327   13.39324975953835
P        12.67091702432624    9.36534879979816   14.73862656843341
In       15.48946827555200   16.48510978792448    2.02457178726902
In       13.79846704977638   13.56946357487010    2.29381415856928
P        15.11168869096060   12.71039114384458    0.45096449610942
P        17.30287134102835   15.12328266708923    1.11052720626108
P        15.11693976495470   14.94285460530743    3.91329465887709
In        9.86877618422548   13.24784541766848    6.57733104275276
In       15.38307377642077   16.72499921873794    7.56637022650222
In       13.87370161759166   13.27430123073261    6.56068353875607
In       11.73521099437186   16.38178052239627    7.19253740070369
P        11.85741698058718   14.42962228921754    5.69605446636614
P        13.31671705286391   17.54698555179814    8.62533021174414
P        17.08445730962444   16.17604336188436    5.84406316139527
P        14.86839426898971   14.47460937611474    8.53229183626997
In       10.07864162203678   12.67892987735415   10.88037581853583
In       15.69942341580746   17.89795579067819   12.57067045431607
In       13.67187827548261   14.56058367454626   11.68559815054874
P        12.21822884871082   13.46802190297029   10.03128535594197
P        15.48763109574927   16.09810130578246   10.91957120818395
In       14.79452461763662    4.62336995125746    1.86477857584141
In       11.45798485219004    3.95008861698860    3.49337282166225
P        13.40973676831612    5.45336088335300    3.77797363367326
P        16.50977798715288    5.84452694436865    3.20876503385661
P        14.79866533604167    2.20178048209481    2.15074236361932
In       15.68904367407643    5.03113987806061    7.01057870384713
In       13.80988559049912    1.91347664688974    6.13168143563396
In       12.28347261902855    4.74104870818208    7.71512693428886
P        12.69693871957171    2.37035807811630    8.24033202959427
P        14.29777685937967    5.50740218786131    9.02258980925999
P        17.22215962493461    6.94276455423670    7.63704699308231
P        15.29680312630637    3.57379768416892    5.02606770406382
In       15.18867762527570    5.30558773063692   12.17838959203461
In       11.04039371520842    5.20333460034010   11.68900355753871
P        13.07254871698855    6.52619936055007   11.63605478792207
P        16.84786230885390    6.20355193468914   10.54313134825939
P        15.38196032672816    3.32097703171601   10.70673506443533
In       12.38646087337460    7.24452949836219    2.38012295658591
In       18.38107748313033   10.95269777596728    1.89553785826401
In       16.54763484015237    7.90517633413744    1.80625810870312
In       14.14433022722038   10.39145252419013    3.27631830723125
P        14.20376067789432    8.68504091322903    1.47595883877566
P        16.53445480120858   11.01045487982759    3.53983362399642
P        20.25801054420846   11.47781265820108    3.44764101437777
P        18.76354860132953    8.67838228646952    0.99546009980523
In       13.88276799315500    7.61414468306590    7.75029128705314
In       19.28419332169568   11.01324949945539    6.42292832670714
In       17.42191467069303    7.98334278978071    5.40082467351254
In       15.37323975939043   10.22642022018672    6.73536782603468
P        14.89970985138989    8.06971403102660    5.52735071533690
P        17.36138801816658   11.00549966626404    7.99568023155814
P        20.63441243086224   11.53116609980252    8.43768102165023
P        19.77840185846297    8.82358628607559    5.34133884712680
In       14.01086829644791    8.49700983781910   12.84149546193206
In       19.12101112527316   11.81858670745235   11.67340555523825
In       16.19501712834344    8.59503778466027   10.26240347493408
In       15.74416775138157   11.41884194948388   12.04237763443820
P        14.14297886433568    9.94662940309328   10.79612142396001
P        17.13742555527705   12.88701944038328   10.56021949414305
P        20.19979339607815   11.23571567688364   13.82723420704015
P        18.36950024395296    9.74772885782887   10.49747505830844
In       17.05075130292323   13.39228256423973    3.97985737609190
In       20.46211509737162   13.72218631170822    2.35904852313640
In       18.92598022411552   16.68751835293786    2.07153494836691
P        18.94948233861029   15.00831437474937    3.90229721033040
P        22.50485695977499   15.03244664398588    2.54720724400162
In       16.94619886893086   13.43945194313335    7.54320465286378
In       22.07940778461054   16.59004611407757    6.21281600181505
In       20.38942684784849   13.93809846890524    7.80682041790206
In       18.82500451870498   16.94586845894780    7.46230230937524
P        18.37087171586440   14.96531819724161    8.89637365279153
P        21.10499128701006   17.16626549134407    8.36780738353944
P        21.36121287507076   14.31827796446506    5.52418510347581
In       17.03507630114192   14.66039747425989   12.29907262379879
In       19.44940496741550   13.37274069393211   14.84360184487091
In       15.92569427342952   14.64038634042651   16.05377712836265
P        17.01789768725874   13.26581094989677   14.35157229357175
P        20.25526886316129   15.08204421684370   13.29421081149205
In       21.98777189993528    4.42961641006195    2.60782745193055
In       18.29320058492015    4.81449840921886    1.78745336538105
P        18.44766072628940    2.38682414981370    1.96540195224748
P        20.01441257165561    5.71592480411822    3.37203826027262
P        23.65115837150126    5.92035769317177    1.65115237776736
In       17.13054004900002    2.10878441899397    5.93657734403506
In       22.12567101906980    5.15828507645453    7.78217516703031
In       20.55491060904191    2.38256158614669    5.79543324629188
In       18.86231559405099    5.17536758827267    6.90808933312311
P        18.68300857025200    3.74407433945424    4.86771695646269
P        20.05812083138267    5.98484892821633    8.92773513836312
P        22.54681309821211    6.40866326612788    5.68912025700107
P        21.09859154624515    2.93552257374720    8.10416589114019
In       16.76326258956389    1.72002262894610   11.91561756437504
In       19.74129022530267    5.67977822234269   15.43186476339483
In       18.58675635765510    4.75818501460438   11.57061829264019
P        18.62984167532584    2.50905401749896   10.55643602037300
P        18.37215148836077    6.26693151851347   13.52320455747107
In       20.77588900921908    7.65566181340118    2.02493745891788
In       24.50655105174129    8.03235320774571    2.50249383569493
In       22.17310979638563   10.65594786200935    2.08359556030839
P        22.40150429998194    8.68118206819356    3.62746970989119
P        24.18749727935958   12.00937321398344    2.21556200114738
In       20.45351148807098    8.10531074910831    7.64921637749019
In       25.59174934271962   10.74151839895619    5.67604701564423
In       24.36916986170788    7.57337156254743    6.88922247073227
In       22.69216664719995   10.43947221392410    7.57679884105116
P        22.75645839173500    8.18246378590323    8.68620200051538
P        23.19317400726281   11.20557308709216    5.25247853523376
P        25.88300432577739    9.35733230668852    7.65444314156939
In       19.00342802934635    8.46660696616520   12.54999609422691
In       22.11730990145332    6.35459256436148   12.01903055295173
In       21.93256324362947   10.13901797256101   12.42865210456606
P        20.98822724892762    8.29385571450856   11.01393430776129
P        22.40775405475671   11.98000272440468   10.86737956356797
In       23.52513543200866   13.41953542836931    6.37228758645911
In       21.78997158310396   14.19417345047865   11.64718812576403
