262
 energy: -18.199527562299 gnorm: 0.000625737603 xtb: 6.4.1 (afa7bdf)
In        3.81416608974963    4.35182582371446   12.36225381194030
In        2.14476079869242    3.17372393337578   15.88577603020140
In        1.18390545195094    6.14175139687281   13.61228321133335
P         2.13111935432928    5.59924768841169   15.78752211913411
P         3.15737302880200    6.73132566370662   12.24185346495246
P         5.20440300814300    6.75858936972536   15.90005953518109
P         4.01901610879995    2.83892802838348   14.31453559697218
In        1.18158594995286    1.41112723941349   19.59869778496435
In        4.31288938778972    4.55505661417566   19.15544325408512
In        4.13781288347853    2.53957117371428   22.40964673981947
In        1.44241342950963    5.09232460611517   22.42049105786626
P         3.21570647382159    4.26763395259880   23.88008740797428
P         2.74824994997297    5.92107662960279   20.48198832109944
P         6.18597547773745    5.51388199833537   23.05133916549114
P         5.47682696380191    2.73311717961662   20.33179873920528
In        7.49512037669621    2.48092118701777   26.76221095050231
In        5.33543198830734    1.72900399443544   30.04622827466789
P         5.45383284690777    3.31307025226353   25.62225264478776
P         6.99161961056802    5.02631356999266   29.53625621360010
P         7.50313209912645    1.33934075479741   28.97523257236870
In        4.42302023812908    9.59184462694279   10.39154639170546
In        4.24197728792785    8.05970683476209   14.04360625226579
In        0.82376010919292    9.52599220997160   13.72897140737555
P         2.35041070915305    8.80173939474553   15.48394235168140
P         2.57546817306710    9.79987300269376   12.00761834853533
P         5.18582355035161   10.82620607961734   15.62970430286402
P         5.85395105632940    9.01761544670146   12.32143477231710
In        1.21517560495219    7.15088558338813   19.03220097244286
In        4.68682346637516    9.24277762403458   18.88948163850059
In        4.51151224552042    6.96197891230498   21.94799374420030
In        1.68461860620531   10.19698728105135   21.37908758149934
P         2.67570673092827    8.43496634931520   22.72083232328745
P         3.32001753001605   11.10100631302823   19.75310864965077
P         5.34690340236821   10.42796160568810   23.03058735297491
P         6.14394683276331    7.79073564120429   20.22675927467424
In        3.89403793070862    1.57978082952680   26.34667871851530
In        4.94759815692009    7.94759422695124   25.47483289941654
In        5.58409306527426    5.01401466709665   27.49150920516955
In        1.64541626796301    7.08634608184999   26.62668063198698
P         3.17324341628257    5.51749456895036   27.65446660310990
P         2.93011999190761    9.16244643070480   26.20296595651513
P         5.20982845773342    7.84196422557675   29.05613524825887
P         6.91079412560374    6.53492350671783   25.97293491104844
In        3.76366522825417   11.29070622751125   13.65192545750883
P         2.11547618308013   13.05972506357793   14.04489484497425
P         5.06725088646150   14.79816878426205   15.49486960452852
P         5.57463306428033   12.30394363271866   12.27196730258635
In        2.61837789652817   12.61588770989082   17.98200968205205
In        4.61267620136095   16.27881866236745   19.23544901912445
In        4.55970431012708   12.26652783903373   21.59665046252782
In        1.51580659431926   14.33376883072472   21.40722994946071
P         2.87096316124186   13.25767535552076   23.09571216850110
P         2.30203142653470   16.07741676102378   19.92949111628926
P         3.53641593208932   16.84940860505278   23.53369635901613
P         5.46226361246425   14.33128451053811   20.49313187307898
In        1.40293462902487   10.94975531652169   25.55308051053446
In        3.54973979728540   13.93365789638314   27.07111661310966
In        3.69629930659919    9.69855537592104   28.51486186284510
P         4.65632624627187   11.91527912485560   27.87890147972546
In        5.34445065874264    0.79165473001654   14.27409185496611
In        8.28737256303947    3.19724689158771   12.03677327302626
In        8.93000530216707    2.10422306045477   15.63460398162647
In        5.59256158659350    4.35334981301504   15.55118496759332
P         7.24921664886125    3.20442378245991   16.98279674127366
P         6.88341613774248    4.66528266116302   13.42966402381372
P        10.20110900113278    5.28867884115507   16.46569990848817
P        10.14874354996960    2.89789611637025   13.63433557968684
In        6.51833443151491    0.65191696845789   19.59880586515578
In       10.24989233539043    2.90991438111713   19.38585082737492
In        9.78749313619712    0.69444332633359   22.53367428698824
In        7.25980691572968    3.68238578010601   21.82184722487866
P         7.91127329397984    1.92679073914827   23.44461652637002
P         8.67057362205255    4.70139891770863   20.00334340843544
P        10.25783588258096    4.46815974637695   23.17230318223701
P        11.53161405979475    1.58046423020974   21.02296801166412
In        7.67653573248467   -0.94854968065154   28.11882498055146
In       10.73505495950026    2.04666856970012   26.74162823377209
In       10.39113574794185   -0.17154876427630   30.82041347313263
In        8.71691030220122    3.29221454699380   29.98452609566409
P         9.64662462114842    1.91245676702232   31.82394024735688
P        10.12173396387336    4.06580581850550   28.05384800555515
P        11.77404226359352    4.60139491441874   31.34938353347043
P        11.35158266342517    0.62610413605524   28.68153147029244
In        6.48759117809999    6.63371385780885   11.97458879746544
In        9.33906621327189    8.82191328334211   11.98884215658608
In        8.47450779161410    5.97886872105826   14.84991010149986
In        7.06987846188948   10.21246051242030   14.14027974098951
P         7.95225396576686    8.31346546306260   15.41792240397259
P         8.83503750859214   11.17622869781035   12.61224703927711
P        10.79259570714807    9.66690142935165   15.74740279218781
P         9.84438197068198    6.53005332435153   12.82935854122636
In        7.61098275569682    6.51714890360422   18.72050015540898
In        8.82608662196084    9.65730233646464   18.77021680565555
In        9.28465574803301    6.31709192893800   21.85018288981068
In        7.20958820156457    9.18427100192672   22.00527266705768
P         8.56184760425034    7.90040017585628   23.65167830663624
P         7.54304131236914   11.05021848108846   20.36005138186593
P         9.21150717345082   11.33472645255019   23.79902891620482
P        10.02671053849559    8.20450354580376   20.37314099095237
In        9.13616985540403    5.50125402310373   26.28489259177555
In       10.71740118851693    8.73138881940836   26.05123866953501
In       10.86245399206360    5.98257757876398   29.50778641790352
In        7.47348230887296    7.86500207430739   28.05244486649558
P         9.10181723744657    7.67412239195485   29.89817074109915
P         8.39594312578234    9.53273196461612   26.39581825560982
P        10.98284356312223   10.63389243881215   29.88524681075159
P        11.90844904154286    7.17960054921899   27.56389164965488
In        7.50492913879192   12.11552722020510   10.76462884050018
In       10.66656842896432   14.78893852725303   11.98717162710127
In       10.11916791027286   11.76909349630387   14.67353677070953
In        6.66980235912357   13.49299259982481   14.17995500949289
P         8.19402738561071   12.65662479827149   15.93754321249597
P         8.47116923081363   14.67132240083396   12.98672890428770
P        10.71888786404178   15.42986603894358   15.85983263732037
P        11.77552172062992   12.99536585464185   13.25219753819485
In        6.49828262146502   12.75574485071811   18.89988614159037
In        8.40116749911532   16.29487458922739   20.10446552013811
In        7.80365507596985   12.66720022014880   22.26071366365617
In        5.43195015664059   15.55927636394044   22.67742758576329
P         6.35039149052758   13.68404414171930   23.98564209602841
P         7.28773341185942   17.07568375794023   22.10038571457977
P         9.59995873757209   15.15221453133460   24.39731405843126
P         9.18727618787689   14.04229851228508   20.70209223267675
In        6.33445081420393   10.92229829167819   26.36380551220874
In        7.27408632960601   14.12127274788665   27.33043502398474
In        8.93254280818337   10.83102926332583   28.51366549232527
In        5.59606055015126   12.28774720379961   30.14879258042144
P         7.14031461680722   10.38943638872666   30.14780303283631
P         6.38880145871082   14.52168380390463   29.55164057253997
P         9.19772437840019   13.11819913233394   31.08711307149240
P         9.33794186544257   12.79077338042620   26.98057441164365
In       11.47213230317728    1.04265909864590   12.74749512777711
In       14.56165229891677    3.42699932365176   12.22247487687530
In       13.99137265207353    1.54238441124217   16.11495270087964
In       11.74098515689493    4.52207222186631   14.68685764528432
P        13.52236839169726    3.91361933130481   16.28555479400323
P        13.14728026328199    5.37442854634856   12.79386369332087
P        16.38247965784194    5.56012480074189   15.74190383478834
P        15.24359058033511    1.95579169155495   14.05007273012394
In       12.81447560165949   -0.22674676992631   20.00327888495940
In       14.27831029018939    3.35318768291302   19.76562730575539
In       15.47446509598284    0.95090125117267   23.46530944134644
In       12.38025833428731    3.35611123362947   22.58300901509399
P        13.77827834572215    2.41198258887843   24.38359433045008
P        12.75722223243188    5.04637770559843   20.76081829009969
P        14.37883148488870    5.76502181854389   23.69184928984556
P        15.80757778497730    2.15594414756078   21.31999745666983
In       13.40888984792721   -0.41466734735906   27.85551151451291
In       15.56810610516004    3.08385716996079   27.55985352001054
In       16.25750040569622    0.79521648303740   30.41877459692433
In       12.26698340290351    2.60771547282363   29.96485659585140
P        14.00745091782423    1.32142735151813   31.14059710284113
P        13.20250993400358    3.73056488081883   27.94165547113938
P        15.58430788363884    4.36111892532880   30.80448370851563
P        17.51184627128972    2.10152343753054   28.73553912944814
In       11.33209074961761    5.54564557771507   11.12616045490700
In       14.41146691369540    8.10223634569749   10.86297725648453
In       14.68883364791925    6.62869048385309   14.30970641437425
In       11.42645295170560    7.69790048076116   14.41205805049737
P        13.07720309033444    7.05884850773860   16.15061669498120
P        12.80746305928759    8.76792815037631   12.62194689910789
P        15.69572222336500    9.09750089783148   16.17975811288765
P        16.14349004381781    7.76383271309967   12.59145567206430
In       11.44423509159722    6.50762098868911   19.23563743451945
In       12.76075316760125    9.72133187534749   18.88999063944438
In       12.58970869973928    6.93420259191303   22.42841551723166
In       10.32154198284216   10.18662921700592   21.89583773544304
P        12.33815831506227    9.33743128138090   23.06198512276781
P        11.56711013272828   11.46361826832047   20.16297474106873
P        15.35452151905625   10.86821421558395   22.76352821527749
P        13.71968388778477    8.16486569878988   20.53887654659902
In       12.35909192997961    5.20075665953885   26.13554156885107
In       14.29404507654812    8.55529019963782   25.71349665888991
In       14.10491033576101    5.64802099850888   29.32717469755736
In       12.65937651097570    9.00078117360208   29.10656660247160
P        13.63978375645699    7.54519233483372   30.85475357214063
P        13.51439085136289   10.37369875453309   27.18706727831760
P        15.38143079305790   10.55345642808716   30.13297001323796
P        14.98367447162557    6.73053878498105   27.25283119771455
In       12.22572669803697   11.04523458244098   11.81394279527701
In       14.84644079801469   13.49968038961178   12.48920188684514
In       14.05416690722560    9.92754067442912   14.51091947373903
In       12.68274986247801   14.06760854381453   15.32558830565235
P        13.34424563430040   11.78331531532432   15.99734705116250
P        14.29207259521346   15.35373516315762   13.96091884486532
P        16.17584770900178   13.86610456911849   16.42616250226565
P        15.54492343455719   11.14845148348522   12.91073708647667
In       10.38677301976999   13.09548446380767   18.77951386445072
In       13.57053261621814   15.21102324940321   19.11256865777449
In       13.64610531701665   12.05774411320994   21.42914808631641
In       10.87966278894244   14.19230814523654   22.54968976941848
P        12.30890311359145   12.40277458797446   23.49722477541507
P        12.48940404362466   15.52707910160209   21.25070199152416
P        15.51572171724060   14.00867454017775   23.48216758683883
P        14.80520355627578   13.09635204209934   19.44841776190568
In       11.63037091112067   11.90110775617804   26.63447588409952
In       13.21546804590569   15.08121288273217   26.15913754670486
In       14.36746164037535   12.24548760244090   28.63993957157880
In       10.20479001708197   14.00962708744560   29.03441607406193
P        12.53978041067906   13.50819652251932   29.69743016692761
P        11.25601851936120   15.63354878714082   27.47886880874819
P        15.29626089368781   15.99350160339166   29.14995395791924
P        14.89192639026175   13.25735385848550   26.37389066300631
In       17.06759352748049    3.28554214222602   15.10757411883803
P        18.18491085556730    1.51368667415537   16.36670555146605
P        18.48239218892369    3.93883836317636   13.16888567132937
P        20.30991509120972    4.37285605877530   16.95452698369549
In       17.07134009377712    0.51616449735382   20.00755288178996
In       17.72435862252139    4.12510880526049   19.16888895029301
In       19.62157448600547    2.92500002622721   22.21384129277951
In       16.02633435851673    4.35264742782732   22.52704714039520
P        18.05040286121778    3.81718536403997   23.82132040380921
P        16.78171690321564    5.84603745511037   20.67208582631613
P        20.76428417467778    6.22255152662034   23.31595407996478
P        19.98931341748930    3.58759206467245   19.90648367241960
In       18.92549532432898    1.41840589705327   26.86866665088339
In       21.14745108732575    4.79986656088827   27.45304506900724
In       17.92683872738186    4.10206793403565   30.16034299164115
P        19.08367072445121    5.57184318271469   28.50529271346210
In       17.52798488814491    5.81993810475474   11.94148477752080
In       20.57008163573181    8.29881531335805   12.03969196195188
In       20.23614476642500    5.00685075395463   14.58000905302737
In       17.43741009130972    8.82437864801113   14.44122220154168
P        19.09055035677300    7.12764950770189   15.11268464696509
P        19.08393510730430   10.03813710395259   12.97721394871542
P        21.63350610849983    8.93718807104178   16.47156473741125
P        21.55585051254920    6.26407073526663   12.90759216168585
In       15.00946931865905    6.59992048416674   19.09782827965342
In       18.20135782783117    7.66707832465954   18.43792443696503
In       18.84316200726500    6.68976422666699   21.84393422384497
In       15.59784208379610    8.49052584691219   22.17313747098967
P        17.28686369130299    7.43935271098280   23.63042804197277
P        16.90193358605491    8.96260772055843   20.09531271088084
P        19.72309206625556    9.96330455146082   23.70833208615601
P        20.14966122960870    7.49814936954180   19.88861011857981
In       17.28463843884951    5.90154875647784   26.85296978303367
In       19.73521929810349    8.15343605080275   26.64292436581225
In       19.41623917426287    7.44900825999209   30.11252410239495
In       15.90150603061196    8.60918199929736   28.68404085309540
P        17.01056885114896    7.47013225261955   30.55596994682771
P        17.53630683446662    9.29085230455254   26.90491194453343
P        21.08162815474829    8.52077910469457   28.65410285718284
In       17.38460518258508   10.71855357949670   11.31064592226192
In       20.44663058739605   10.48742609279615   15.02173250454583
In       16.90358818641919   12.16574815598261   14.80416758608707
P        18.50610583706925   11.11814046651644   16.37855124720183
P        18.40189068584203   13.56947248543181   13.47284805549968
In       16.35151570033726   11.19593256189924   19.17971058158638
In       19.85243057084885   13.04160539946814   19.12655590566879
In       18.67480538014625   10.11625407747645   21.49037943932154
In       16.36282624543811   14.11524100944579   21.16811687009728
P        18.03727530315280   12.46062880686520   21.97402982682865
P        18.06232258962176   14.64667334392103   19.43774812825646
P        19.84941197008196   15.75678968966477   22.90237333546377
P        20.03483086577773   10.64527021372720   19.49675949123284
In       16.50460358036721   11.37727279922708   26.02144245351686
In       19.73272377328083   13.28595249659126   25.98985700704277
In       18.57838578033709   10.62215408686901   28.77322348922644
In       16.63043895090430   14.53296755532369   27.70862982997570
P        17.67484293095952   12.86718243602325   29.18333347171620
P        18.03618908470967   14.99061650608698   25.72494385849906
P        20.37889651080706   11.30566684592591   27.23425563705520
