236
 energy: -17.182289449747 gnorm: 0.000103956695 xtb: 6.4.1 (afa7bdf)
In       11.48343883578531   10.20806735932066    7.00553904214642
P        13.62617242788792   11.34119113348716    6.82482603038667
P        12.33263659851963    8.28639539255483    5.76591524618245
In       11.58234328170104    9.93856632957295   11.54042488968907
P        13.52156431671960   11.23560160183590   10.85105880075414
P        12.47302356847033    7.97168839460835   10.40364260218036
In       12.19124400123272    9.64851619242253   16.87502906448598
P        14.32851684254065    9.73892030018946   18.06529530692523
P        12.67629741313144    7.73183026014182   15.45032717368603
In       14.87973152735411    4.38522402852636    2.84155353404854
P        13.60444587397248    6.09415199387844    4.08817945979303
P        17.02053331022022    4.72509980478814    4.04315607674859
P        14.89237085438828    2.16734827323103    3.91054213376837
In       15.75064570144758    4.57589622041491    7.71908728077452
In       13.40821020495908    1.69453875857821    7.28791560792730
In       12.03766670723738    5.08435993986043    7.50391882190354
P        13.28562586344745    3.71131345138405    5.87615014748465
P        13.97183962546231    5.94462330791854    8.79631989315352
P        17.88600765224612    5.15977138504237    8.88097647136161
P        15.55897943109321    2.19405396615719    8.40179264772108
In       15.86704346742790    4.31968167858142   12.53950936613873
In       13.81254215235689    1.46624442205649   11.84892216858535
In       12.31543100293994    4.65025990344911   12.06182274182446
P        13.74265531766282    3.47762895688180   10.42034216783490
P        13.99786984710989    5.54590381059387   13.64661577744212
P        17.85056002391775    5.43873352362683   13.53673155346571
P        15.94096422323439    1.88381566297589   13.05178299712608
In       16.57133680332011    3.68966144264287   17.21398695557578
In       14.90772963049510    0.69473435940913   16.54850160897058
In       13.04126904239638    3.34442630982416   17.33863080134348
P        14.29149283266747    2.74136389791912   15.30075756084391
P        14.73486221300257    4.63407284658783   18.63129707163961
P        18.48573579620962    4.67825170208116   18.48579552765512
P        16.98468357235321    1.30084645091807   17.78463954022649
In       15.76502841924934    3.90841313033469   22.40888483782592
P        14.31295947678183    5.64428586551415   23.34994822433777
P        18.06677821912066    4.69182299139828   22.86806949095224
P        16.17357495796142    2.64600510590853   20.31422002790724
In       13.90473591730011    8.02963775623062    2.61060264658313
In       19.62132959361255    9.54052543903075    2.63888782067926
In       17.32106618165127    7.14545867458463    3.54854147978716
In       16.24520796047712   10.95491588014457    2.96752236012529
P        15.63312480029951    8.88369438196962    4.16247271128463
P        17.56418135741437    9.75943976170006    1.31375820227426
P        21.17759673755891   11.32477940758665    3.29015702328511
P        19.38476190671356    8.05343213039616    4.64335933609349
In       14.18914552617177    7.99193832325969    7.36722679857835
In       19.56427930684665   10.17718795834449    7.61708733287374
In       17.47555043960417    7.52437371742746    8.23568914248864
In       15.98778350308395   11.04928405504031    7.41384672128780
P        15.71422871572209    9.13370020430766    8.97125521249250
P        17.63529199443158    9.75863793433255    6.08156848739980
P        21.40205863475870    9.19893828373983    6.25254756738367
P        19.48828091637177    8.44012766942238    9.41898416817192
In       14.14420180215264    7.56243506928575   12.17105494095433
In       19.62000395762151   10.57141595585830   12.28399108045658
In       17.64813940961105    7.74402563830867   12.65272243683787
In       15.77395784728271   11.38428976739267   11.80086165096730
P        15.70906766108737    9.26572965845509   13.08566079705057
P        17.68271172413861   10.20452777812992   10.74127992360593
P        21.49561344394156    9.59008552010522   10.96374905598403
P        19.59721794837235    8.67563273339002   13.91647583061704
In       13.92827204059659    6.51873935207566   17.20093162853731
In       19.65745282128268   10.50927031788054   16.99276089825069
In       17.70892602244803    6.73374562431494   17.32671531574805
In       15.75578190931543    8.95379944884339   16.20412898268767
P        15.89080506976991    6.46874937967836   15.63178718758716
P        17.70161495736548   10.31306443899917   15.51587259122857
P        21.62782215533779    9.80808091825745   15.65659042884987
P        19.15071707193409    8.48358882164088   18.33800068309147
In       13.19315499873354    6.41866071226752   21.34312415376203
In       18.80685961127519   10.16636196224385   21.33224596022140
In       17.72988458788251    6.54033924543045   21.24549019156983
In       15.63645730369354    9.03833833216419   21.78518394922701
P        15.41631723116714    6.96701657356903   20.42348992942303
P        16.84279140107418    9.96093266679886   19.84932412699295
P        21.02690013111239    9.57614321230939   20.42961108869103
P        18.76697346362606    8.17682420391194   22.79639563195872
In       16.38520667689391    1.00801261109403    2.38332330611032
In       22.78871802614254    3.61741363365714    2.40316114913146
In       20.46529456551895    0.74287746815061    2.19346361054982
In       18.78086166383667    4.14950269781820    2.38978496619903
P        18.45038290070415    1.89660155389738    1.41979030028464
P        20.83038326080696    4.23847936625234    3.79222238651813
P        24.70281476411944    4.43625649426207    3.74047966589175
P        22.76589845626164    1.19284920467545    2.89668912206318
In       17.27017514274146    1.37575733278149    6.82709588472844
In       22.93229596967901    4.45420188098405    6.88510354801990
In       20.89870529582695    1.32555950875748    6.35409483759278
In       19.16365780268650    4.86155413363537    6.75679544969304
P        18.97160656788482    2.66616619247552    5.56257413725328
P        20.95004636771087    4.33281480426357    8.41093426219073
P        24.28842678691219    5.08244966245527    8.89616332063410
P        23.16341660731553    1.97483917496802    7.05823500832377
In       17.52566783458341    1.10991027172734   11.33902304722728
In       22.77052549598865    4.05101986157990   12.25135767097625
In       21.16740504503613    1.20308867090771   10.51472366816765
In       19.30716430167204    4.51356949396224   11.72371447511568
P        19.11994597952876    2.56895352818958   10.15006573237132
P        20.83417836818990    4.77408982442497   13.67659249603625
P        25.11010161658858    4.48734650559429   12.95536215109989
P        22.91085658222735    2.91048929929123   10.01174363682034
In       18.14325865723641    0.46475662554597   15.76323536852242
In       23.35553025652350    4.08249816979729   15.95917179205331
In       21.48737115346978    0.96969183092676   14.51118203459891
In       19.95561444006239    3.45331613834326   16.89298861293332
P        19.43011751956027    2.32194723825115   14.74541234741930
P        21.80611648686095    4.89599398790777   17.74737556311622
P        25.04127911505508    4.64401662540859   17.72711087413914
P        23.37031706493237    1.58993045423016   15.95581852368688
In       17.74828590920320    1.06540574870421   21.34989312659686
In       23.26949046069847    4.33945666552412   20.86288375160136
In       21.62946950021482    1.04903647469074   19.79619625539655
In       20.04873398211768    4.05446576965470   21.52383848712277
P        19.45526079087962    2.20113526777616   19.95947278911679
P        21.35378751353992    5.92227916219917   20.44095835913970
P        25.13103794042844    5.97060209781496   20.44973483341246
P        23.33744333271064    2.65495641637922   18.98226944125761
In       21.22100251008007    6.68506315946751    3.62481359872743
In       26.69921072527429    9.85925573136758    2.39647860306610
In       25.12910216555607    6.84777378128891    3.25047551968276
In       23.18685956258001    9.92725381894979    3.07676759829638
P        23.23138539199210    7.88795773173980    4.50392805072930
P        24.62379530558361    9.37072438724622    1.16708838082059
P        28.69370570082314    9.79814231737381    0.96454391194942
P        27.00204867019405    8.21300651479386    4.24750454065343
In       21.26689039896148    6.82705006276407    8.68168814111302
In       27.20202343399387   10.22953531455681    7.28894301301436
In       25.19142277713983    7.17857427463147    7.92728185571127
In       23.31397461595459   10.14207571844825    7.53814826422272
P        23.28634525530232    8.24991861926489    9.15976868960209
P        25.18500028925269    9.50716990193927    6.02576963437823
P        29.09803184855876    9.62314772482707    5.79024799921103
P        27.08275370443306    8.41800444351626    9.01210961822154
In       21.32284142395664    7.12525236786261   12.97144390356634
In       27.24275946765385   10.26505149318637   12.19383357866862
In       25.20689177027321    6.94929841630344   12.60852837181764
In       23.43394672378151   10.24906412313749   12.37876281077899
P        23.41003424656229    8.20336264008552   13.80046939280732
P        25.27201312545295    9.57279309801305   10.85476246037346
P        29.10073550301077    9.85257142518634   10.58726274377993
P        26.98253839626736    8.31799082640607   13.74711285930417
In       20.98966408565732    7.19293709325210   17.21205525462949
In       27.10336485587112   10.40380133562392   17.08087635901212
In       24.71406895484437    7.09730172813413   17.39266844527067
In       23.48653011269056   10.23680008655191   17.25282774164953
P        22.82155821267826    8.21275979961648   18.59698391058300
P        25.24973395001616    9.56224035955569   15.63248729067257
P        28.80687365643212    9.85175911967708   15.32064454661346
P        26.49075826054735    8.45345368114322   18.54691106090130
In       21.00935397858331    7.10934493142944   22.60872910682051
In       26.40195404835498   10.42870967683104   21.94704415000168
In       25.02809548882412    7.09501124267764   22.67372615902208
In       22.82072811311316   10.15508445893327   22.03364737361874
P        23.00766535999655    8.22795404445658   23.56470047874965
P        24.64096818012918    9.49238148553743   20.47538202256864
P        28.45258960969043   10.55302788215304   20.59775974831903
P        27.08798399734681    8.39632384133800   23.17441039182550
In       25.03095061179004    0.54447217844430    2.24046557533792
In       30.25451024676894    4.33535705405736    4.74349268503652
In       29.62671052216119    1.55238829028741    2.36652184084602
In       26.71053521392912    3.90781298860812    2.36666755955250
P        27.21280700716353    1.51360821582167    2.80272893586957
P        27.92811236631620    5.02536305181640    4.22658197678355
P        31.90872680753054    5.08923402748154    3.10634934145136
P        30.93596594695380    2.00031489510808    4.36061370268191
In       25.23223793022774    0.86077137165635    6.33382868717943
In       30.48351663652151    4.19343861197757    9.40545767743684
In       28.56087133559124    1.77578382415547    6.88363689922934
In       26.17422803028283    3.92023158470542    7.73498546607965
P        26.66328455973915    2.75684648198864    5.56775102258956
P        28.25246311215588    4.91689336585737    8.62833378786742
P        32.60807706141942    5.38847022551431    8.95020213688667
P        30.01472599805788    1.80747986274491    8.88784040816211
In       24.87695904188430    1.70379461906235   11.00326607636375
In       30.69466228982768    3.99069728673300   12.99213638682818
In       28.56624289598658    0.59913255633657   11.88611037601624
In       27.11835616238747    4.07734332386912   11.56092035423502
P        27.25368634530523    1.92752390131094   10.27813725855239
P        28.47144947942205    4.98600044315602   13.43699970005957
P        32.53626491987949    5.60594893373437   13.35880178124058
P        30.32056896738134    1.55696673993560   13.31898859994889
In       25.54997622905505    1.04331803833438   14.97705337106530
In       30.17962795836344    4.41837271029869   17.00953754953726
In       28.99934711565247    0.92234383443409   16.60843122716244
In       26.94216273003018    4.31060966178464   16.17019393859639
P        27.69573935617644    2.25183406594082   14.99857030504096
P        28.10461421351863    5.11321229826741   18.23473380970495
P        31.38932713667542    6.03503303290403   18.45549791102528
P        30.73655578312471    2.14403957727245   17.84017759535564
In       25.36799278368083    1.31465281054330   19.50694994849868
In       30.65921814678144    5.09356827068252   22.69076862161474
In       29.36973977107932    1.84442381991588   21.09471127627465
In       26.63419199303700    4.21022584238141   21.40316413135400
P        27.47528852832101    2.59060451621843   19.70178596489929
P        28.21095585018287    5.28135195931040   22.97968880686889
P        31.99582667270125    6.92144111729456   23.63001346069302
P        30.71474369359844    3.82122320797958   20.58978772087300
In       28.74525915617343    6.99419818237975    2.92935064934806
In       32.15319317902517    7.15255602496436    1.84875298131060
In       30.42163776816396   10.47001481621900    2.53126527276614
P        30.78401265049779    8.27078225604941    3.56591748187536
In       28.64708677102318    7.11080487863541    7.56402879553889
In       35.04134755720862    8.16697456252938    6.65321701093301
In       31.91776293733417    6.72250937055215    6.96635553511533
In       30.97185265831745   10.28801056679257    7.25734316428700
P        30.66168961032788    8.18992612161647    8.54212883372673
P        33.38025627334192    9.83869684466051    7.23812121531659
P        33.69139729928781    6.70670299013824    5.25018318637789
In       28.74914262403622    7.20820820403306   12.36139099516270
In       35.19001355498270    9.31661514795896   11.75606649145934
In       32.07376120175970    7.46222276696390   11.77489935423326
In       30.87288233439326   10.76277055551700   12.05245760810379
P        30.54740180183038    8.65588637127233   13.33307320274809
P        33.28601267906862   10.63895226111465   12.45941056599666
P        34.11492716168823    7.60056229956534   10.41888864524161
In       28.32025773367767    7.38275045093887   17.22525361877690
In       34.72959519866048    9.05618290228098   17.06543898828157
In       31.59057572983413    7.65304674675146   16.55665218736218
In       30.54342106955308   11.01341563743393   16.67669026245421
P        30.07184445585981    8.98592481127209   18.03551549519176
P        32.97647498709595   10.71869803178594   16.80730704674139
P        33.79882084661067    7.47004948785494   15.46747517661156
In       28.27931484833908    7.17272437787543   21.36374943261771
In       32.93221144463971    7.79130513954122   21.56734198428896
In       29.98437105834390    9.78748477903540   22.34987172916087
P        30.59148159161317    7.93712101163960   20.80121100229641
In       32.20465850671427    1.47225783979484    7.79874813661338
In       34.65068774814182    4.46168692739058    7.94469657505801
P        33.03356286481649    3.36059646217248    6.49543599634518
In       32.43641279318045    0.97566563507898   12.21448343884568
In       34.67650559354880    4.73006921206314   12.54989062853347
P        33.82017002799135    2.78321819204269   11.39805501527909
In       32.88780271809532    1.95709634811660   16.66971513363049
In       33.72987389164064    5.27292996658313   18.38749283161474
P        33.45585525055586    4.27395562449606   16.18875275633112
