50
 energy: -2.705370269935 gnorm: 0.000704085368 xtb: 6.4.1 (afa7bdf)
P         5.86609102067491    3.25084844143359    6.95319830533445
In        5.34092116480656    2.01356731148571   11.21577849233279
In        6.17079550245064    0.15896725493129   14.81218525986625
P         4.06517520726111    1.24689176396235   15.17292093128694
P         5.13813658824072    4.34124517310536   10.68252121763609
P         6.20309852695115    4.19352552014243   14.24375526487304
P         6.98568178745378    0.70931396473050   12.53435054782256
In        9.78595580564156    1.38547443001303    5.34546542603601
In        6.55310896686354    0.99739990680655    7.38673117200544
P         8.72327969509537   -0.01163171003957    7.01721227868155
P         9.26926925204841    4.68725773368400    8.02641078138092
P        11.46683887710467    3.11010580423610    5.11154504482192
In        7.34533207657575   -1.43349842120397   11.39896975559465
In        9.22186348527979    1.61674594205824   10.17716703040898
In        9.91849513717728    0.04580229430763   13.92775842377412
In        8.03746942525042    2.87258893550403   13.30343005868174
P         9.28473683287421    1.99044753840638   15.26733211929014
P         8.65109335670471    3.79153697579379   11.08533453088971
P        10.84185018291421    5.14038129584139   13.96378986738466
P        10.92096054649043    0.79068642508074   11.78041034658680
In        4.82870455769532    3.85924442455042   18.43651370401845
In       10.74891619288532    3.75155636449219   17.96877059435313
In        8.41402302590695    1.01972915923385   18.77187876260258
P         8.69662287392625    4.68139362812448   17.11505427750579
P        10.78125291888060    1.26807851902699   18.13130354529554
In       12.94524142822078    0.14078350535155    7.11103945538310
In       11.50748961683817    3.87016879189952    7.45672817267491
P        12.43277635579106    1.90376007832208    8.65943414548086
P        12.86947187334393    5.87289754247171    7.82290942436708
P        15.75419035474556    3.32104256218748    6.71425563016785
In       11.74971501543556   -1.31015746594760   10.81191611908590
In       14.42715796119852    4.38189585004280   10.89291232281892
In       13.72950083288245    0.48085550313416   13.43015633246341
In       11.44701511638314    3.00139928511271   12.89166692313634
P        12.73424516954559    2.20078825995006   14.86032559924046
P        11.99897312778713    4.21107449654955   10.80424893296071
P        14.82767367492655    5.01726625626959   14.55905536993057
P        14.73867348141296    2.13004587469179   11.85714469161892
In       11.46206721547652   -0.92153830729664   17.22854122070497
In       14.29209814299664    3.65273850340281   18.07354338696769
In       11.99511032148598    1.20071269008659   20.29859593097920
P        13.27318389534285    3.26053904964211   20.23829790764310
P        14.38313043566000    1.34990477524286   17.25316842961890
In       15.83276763694266    0.64950739341574   10.25175360936905
In       18.32311618759286    3.75854998342038   10.17311395469638
In       18.30353081255751    0.13083075279211   13.41683272566547
In       15.97803056022644    2.96133599575675   13.88758673258422
P        16.62926589708179    0.83378708747756   14.99607622159974
P        17.86713231028089    3.75478770817581   12.51818261978514
In       15.68220706869601    0.35805265218373   19.02822640250882
