212
 energy: -13.909926155867 gnorm: 0.000758598615 xtb: 6.4.1 (afa7bdf)
In        3.14855145440195    4.62820919198397   15.59039211094952
P         2.90949838980542    4.16098891152338   17.93399551318155
P         3.81344288832679    5.81336169541920   13.55312142509539
P         5.79278205649205    6.93963124018819   16.50719165716792
In        3.49447940077840    7.38638237769287   19.11316319872872
In        2.99531022955401    5.04347197718531   21.99579562377759
In        0.06018488437586    7.32805894577750   22.22079160669120
P         1.82406680465676    6.40035632011870   23.66407292016567
P         1.41021513280415    8.10596946435551   20.28155509850595
P         4.29151046109839    8.48406809734163   24.10593575227727
P         4.84261200360302    6.18731196715711   20.81910392616218
In        1.62062447783827    5.54171354672448   26.81161892965460
P         1.38739087946679    7.96283151635237   27.28701788459030
P         3.86104538932438    5.49344602287124   29.28595310223975
P         3.77658837464664    5.40470800487324   25.64543006702287
P         5.22222091169255   10.74625534426322    8.55712020086497
In        1.99747515784886    6.58899331554877   12.14469414588123
In        2.73044443203532   10.40693229080062   11.49889251595621
In        4.55008201841055    7.94665986914744   14.61335596440373
In        0.66144284167606    9.90713569568731   14.61886218154870
P         2.53931094054248    8.84927944259413   15.71035411877184
P         0.92756057669379   11.52111015882085   12.76260953112995
P         3.57599537455358   12.08594182630204   15.62495046396228
P         4.70340722078265    9.35964973795867   12.53529501161398
In       -0.19330571539434    7.84692939215044   18.44318617068716
In        3.27813215193621   10.70118182297705   18.87201309122626
In        2.96901842922325    8.98110421643692   22.05836082358831
In       -0.15457242035871   10.80775797511735   21.75057761992397
P         1.34529649563917   10.12815679472549   23.54261306052933
P         1.25266992836249   11.72178651502146   19.90837493840430
P         4.27432640353690   11.94596373102222   23.46287115720004
P         4.81855519622787    9.83408083135056   20.60546780438908
In       -0.62150294494144    7.75303819738531   28.65245432045396
In        3.59873612306888   10.69514214581629   26.71275206326851
In        3.59561317417091    7.80212161620885   28.42757510172450
In        1.36859513628098   10.27729257444645   30.48411032114180
P         3.44943405750091    8.99972453882351   30.59236136375767
P         1.69724791058069   11.24283545912387   28.21460627417451
P         5.35601944702161   11.58252818417479   30.18524346372802
P         5.31272518727639    8.90105908361882   26.92602794652877
P         1.48328064142438   13.61127607471052    9.71059731131898
P         2.65039015127139   17.23050171634426    8.34422916598320
In       -1.19618954884094   12.67456110952269   12.37793831850998
In        1.71709405838919   16.34170288871923   12.25740761703896
In        2.06437668749733   13.30246696352002   14.12520487642129
In       -1.22173979351551   16.27739663731498   14.82181043919198
P         0.44485094954221   14.63128469488575   15.40375087917409
P         0.02427093887933   17.80506611376297   13.33477309368141
P         3.18931634668843   16.66695303009547   15.74010948246739
P         3.48226555378981   14.63041571947320   12.54671395401599
In       -0.34778423064547   11.94275510196261   18.05078212461596
In        3.04113120203260   14.05048050764841   18.33448587263463
In        2.75085138273275   12.71982048317576   21.67450894417521
In       -0.49823316003467   14.27353537628896   21.25237390951136
P         1.06041132457931   13.87625342214471   23.07613720664532
P         1.04258228922724   15.01380310485323   19.45499434723359
P         4.13141329153404   15.59133830050565   23.09670731318196
P         4.62108792824586   13.44438519140394   20.15409547227295
In       -0.25215034284934   11.42556243994453   26.74342234163962
In        2.66096218829283   14.01253360844326   26.22741567600793
In        3.30475322963263   12.74380479747945   29.45513750846268
In       -0.16789826685966   13.90967059450792   29.93025723461884
P         1.84280011840623   13.60689410097354   31.26815811032555
P         0.95725153790865   14.73934480492988   27.88067933590835
P         4.61786257155056   15.52472733365377   30.77646066437794
P         4.70182033721245   13.67407946081401   27.58183116588538
In        5.04544826519881   12.89795662010685   33.89222332261273
In       -1.56395319835487   18.33363334206792   11.54978554104255
In        1.99393537853195   20.06027182366388   11.33458747265002
In        1.86394732585017   18.56392537988768   14.88081224310107
In       -0.99024573971492   20.91910103946276   14.93249195380076
P         0.64733841299552   20.01879516413843   16.47940220192932
P         0.65829969758770   21.08527300873764   13.12191688747414
P         4.09768346386179   21.08511773538360   16.20945067713136
P         3.47447849963131   18.99748172833009   13.00506039171090
In        0.08124988106194   17.04429624651331   18.49589956087308
In        3.73665311828873   18.90852974374529   18.73594023871550
In        2.66287511913429   15.97076904050777   21.14516502683642
In        0.63442612875825   19.69952080800302   21.32424876690887
P         0.92462298925857   17.42482359372864   22.13227804217508
P         2.13998863930988   20.60462925755483   19.56124092945186
P         4.09287124138637   18.88926978146319   22.26397027057109
P         4.40209196811198   16.64688123858122   19.47423953954189
In       -0.69210940249508   16.03141087220814   26.61226714456311
In        2.52676701881544   18.02710754175277   25.73033594204011
In        2.78303090390372   15.90303917722476   29.16269902123404
In        0.76630565236074   19.45028831513915   28.91163387847104
P         1.19022525165157   17.45496640158044   30.20515857467834
P         2.06195017543970   20.15079405668226   26.91629585054790
P         4.12104746946913   20.31670476288635   30.06257926008920
P         4.07163293140815   16.83938154839989   27.23987139675522
In        2.55678241632286   21.95641008643716   14.49162981514909
P         1.71381066380692   24.11307097316094   15.29081059140902
P         4.19571654304179   22.63892809577384   12.74575022128110
In        1.37011881573594   22.84195628456959   18.95183535971256
In        5.12511037953171   24.18127622551063   18.35658649155788
In        3.82515467145948   21.16736353069878   21.35302552899006
In        3.50016990867545   25.30558253469323   21.50150826321948
P         2.94447119124747   23.16857810603706   22.48268162204042
P         5.49804409209328   25.74333516912220   20.18403836405810
P         6.27654013061284   24.54708054243077   23.65119392655215
P         5.44619463965612   22.15455756535497   19.71945838352314
In        0.80345865126761   21.55443568199415   25.34857132539168
In        3.10057242522771   25.04734405980251   26.14113039823922
In        3.45779748091500   21.77681902137996   28.20563896280768
P         4.53186557236954   23.08976403670055   26.37975916710580
In        6.79977032047615    5.23151873415295   15.07277118560470
P         8.72681435240461    4.25282709774476   16.18450398119149
P         7.27260275480746    6.76581269510905   13.19488473970688
P         9.41645873973970    7.82168015204141   16.44933953225881
In        6.43605571249599    4.72952490296935   19.68086150976862
In        9.89480522557930    6.71070284301809   20.31033887451995
In        8.40306322505010    4.37402618334305   23.00957566789871
In        5.99956324088805    7.22860292309849   22.78989160553000
P         6.32350275639750    5.08148470537465   24.03615216208003
P         8.01165180649799    7.87656240076229   21.42008260980139
P        10.46293597953034    7.06691866365976   24.53693970015300
P        10.38549506015441    4.77334498086040   21.68212312690180
In        9.60653372822123    4.16390874579819   27.19206864375082
In        5.21281323391528    4.57014476117416   27.46646289967119
P         7.56061858584146    5.24640781156262   27.96173247397040
In        6.18822621697261    7.85018219952205   11.29269383657104
In        8.43550433725304   11.14136920629733   11.14516688981894
In        7.96395701544520    8.65847473190850   14.66287179274660
In        5.30143449516523   11.21327848419856   14.10330288202346
P         6.57440490082045   10.22887500779006   15.97376997778941
P         6.76815429823371   12.40327326058735   12.45046103677741
P         9.69312466361651   11.73876221800076   16.13095509860840
P         9.32472692366607    9.82242997661447   12.96481022246665
In        6.75046968700180    8.76461057262367   19.48954654956865
In        9.98005979191881   10.36725461059565   19.96052389800917
In        9.29591115430478    8.84882099621782   23.32880457486319
In        6.18395354696187   10.70001895605654   22.51533542443484
P         7.46455105852077   10.01527881258693   24.51944256574308
P         8.02477241902186   11.46443914926319   21.00193866960412
P        10.71296311889127   11.73872489908449   24.83783554882287
P        11.17635195019939    9.71293875885427   21.97676873093372
In        7.21391705310340    7.33442646099894   26.70613509014506
In       10.24397193657558    9.19250439793592   27.65397325781691
In        8.05834243414442    6.19236664532252   30.20480665397710
In        6.33742476567552    9.58487045731821   29.12987068009367
P         6.04126974716637    7.55530271261680   30.51973807376949
P         8.26996163504646   10.65712731913226   27.90072245023185
P         8.29143305894081   10.07163864755553   32.08639160874917
P         9.84435174419479    7.69213663680806   29.50378606815837
P         6.60262923694003   16.00505965011614    8.10257017992823
In        5.15120790954402   13.62613198607423   11.04882339409020
In        8.50028842947327   15.13140545015006   11.70412550072318
In        8.30925899042325   12.80678419200480   14.40076370610481
In        4.87394238640322   15.37416306183299   14.49440294499733
P         6.51495219762841   13.94425348371301   15.66089508907538
P         6.68007877150936   16.23717953763281   12.97346358739111
P         9.83976294786936   15.54402758756533   15.97773472369659
P        10.07726802721051   13.77964855438884   12.96867310158084
In        6.55911611265981   12.24200736072782   19.15994381437519
In        9.86248073967372   13.82319823680121   19.49794414537081
In        9.38098007599337   12.43082746250428   22.88225941848410
In        6.01733540506584   14.42977490318201   21.99346252265906
P         7.41411798181015   13.58177470002920   23.84810956816834
P         7.96491843578264   15.04021519759866   20.53372130466702
P        10.42113498980250   15.50512574300613   24.52263532636370
P        11.21171557414986   13.26309105078303   21.44545399277177
In        6.67349015637079   12.30045078804125   26.95470042017834
In        9.85313310210426   13.62642728697507   27.62889799356835
In        8.90547264191973   11.50218911039539   30.19864047343672
In        6.30231562455739   14.93284308556478   29.06227250001460
P         7.94996346709835   13.76193731001332   30.46740138472135
P         8.06117415043430   15.30942802001476   27.27496588521333
P        10.93296676849249   15.88190976619820   30.32292975710645
P        11.06301539738890   12.30915688077495   29.28948785804083
In        4.85617288865006    8.32598294560409   34.29661275547425
In        8.16956092276425   16.26302573996620   33.66481103014898
In        4.97923232864420   17.50953386144990   11.70139505662154
In        8.43146671966075   18.53713824815465   11.44189830608344
In        8.27074860629815   16.98876877214597   14.75433177441279
In        5.22907867965262   19.44112739916486   14.74714859623238
P         6.52821013464255   17.95093630932484   16.22373486432365
P         6.95579000511335   19.81469926277392   12.97048758690638
P        10.16461402340246   19.78283033940539   16.43254563263909
P         9.98625220615251   17.81894821735494   13.17637590567620
In        6.47648627425933   15.57538269947514   18.62421318550817
In        9.75229877662206   17.26592662770167   18.93926091582066
In        9.36698829889535   16.03845604170864   22.36351712336772
In        5.95012879231274   17.67354974912006   21.19250904769577
P         7.33766912252281   17.21810821881960   23.19376398650543
P         7.74410167302497   18.51268328396119   19.66320392211455
P        10.57115590460773   19.26429475571190   23.61926736386129
P        11.15692518174133   16.92264235422429   20.89566309728816
In        6.09276464375308   16.12751493613585   26.00632323890366
In        7.90398440468947   19.02297879130956   26.22548041820353
In        9.19150438566689   16.86584944760162   28.91313020718841
In        5.13255638366358   18.38493876010409   28.91422973506549
P         7.24307659031040   17.84563303801994   30.07032669973961
P         5.59975135191837   19.68477604366452   26.82664684542215
P         8.69662604352215   20.89390947027405   29.42742582153854
P         9.99793875539632   17.97108078546757   26.85081109713014
In        3.65691827016200   18.09203195736264   33.57651285262451
In        5.71329277443114   21.27100115059284   11.40716899137456
In        8.56779758396961   20.50692603143856   14.74616140698589
In        5.68969397466699   23.80712297091662   14.28974159278774
P         7.32944327621776   22.48779567349128   15.47390575892828
In        7.15361001417934   20.70399498851756   18.71283603641804
In       10.21065359109370   22.68541395992347   19.98634304316980
In        9.01831928890111   19.36039759829548   21.70106774491205
In        6.64025437584548   23.00711374891720   21.77311526545121
P         7.10493359283558   20.69292129720571   22.50990179415319
P         8.20681592495902   24.03814534652433   20.15967515761520
P        10.72437136848972   20.33011247827013   20.21094082537200
In        4.58349742142488   21.03170048477397   25.02896195156517
In        9.90179199667666   22.31487281030496   25.79491306906899
In        6.70691573242282   21.49717382267580   28.17088371801876
P         7.54100349976903   22.61027769975908   26.13427429812948
