94
 energy: -6.376139847097 gnorm: 0.000496919206 xtb: 6.4.1 (afa7bdf)
In        8.92199166418059    5.03589961634456    6.46836676085796
P        11.14065818906480    5.40009981061585    7.35309162419303
P         8.91820450591572    2.82623401448274    5.46480237110497
In       10.74567912371304    5.17418921759767   11.26075186533509
P        12.39012888197882    4.89751423028058   13.04367645477466
P        10.06697347381604    3.07092725433053   10.22267267155962
In       10.11371991019968    4.15742834265909   16.27533617101809
P        11.74505851461487    3.29124990193942   17.87990691719862
P         9.51159855936419    1.95909465462338   15.43559026229940
In       14.37723707630547    3.44562311538632    2.57387640161598
In       11.77710419303410    1.14834100076123    1.00250651382490
In       10.93260135963892    4.38403878927183    2.69831775272698
P        10.48887083326454    1.98955981338462    2.87793939633446
P        12.75269136607134    4.13446713219828    4.30867091955510
P        16.26449613395670    2.84894158750363    4.06514161949314
P        14.18616966383024    1.26820975664881    1.42915626230357
In       10.60766502295753    1.62880675882367    6.74062281675199
In       16.30252693672869    3.22808920957007    8.23264878662892
In       14.06302615047855    0.59893063113146    7.21977885869879
In       13.04677301617811    4.11411469276455    8.20237247726392
P        12.30133182252266    1.75570579400314    8.53082488313705
P        14.68446475551713    3.65475546174692    6.39825183790378
P        17.87060688178359    5.13382968673638    8.33492525753338
P        15.97080672709920    0.81171724926094    8.80199298490198
In        9.52154791337067    1.03770046629105   11.45396610606108
In       15.51656582411567    1.66001161238910   12.92602008488682
In       12.76879742272759   -0.99641092606311   12.07345099281926
In       12.44809550449136    2.48040922872416   12.54050754815030
P        11.13644709943229    0.46433210875702   13.24595010651401
P        14.12411931188493    1.74819826478504   10.86410871022591
P        16.41095804870009    3.95007993875969   13.10206467194232
P        14.84953689725007   -0.69028104293424   13.38280385471949
In       10.68375054507821    0.28761182837781   16.78978139734520
In       15.67217222441793    4.16259612378665   17.42733088372972
In       14.27087544165749   -0.36853886293644   17.46976341528696
In       13.10120041356684    2.43053687130292   15.99583191363851
P        12.79639473154472   -0.02089551818770   15.50208517146305
P        14.30071029049019    4.51789235713045   15.40958793703397
P        17.75859847223785    4.99566076515772   18.44848674538344
P        15.45715594769306    1.74388581313966   18.02149830161680
In       14.92237037999475    1.94640781992634   22.08590192606325
In       12.99816691195201   -0.94635473908904   21.48097427544161
In       11.65403854501684    2.96961769304340   21.68280232796727
P        11.66158804996389    0.72949030056915   22.61166048566239
P        13.45913548360172    2.40090787358866   20.11728623618521
P        16.36102200265738    3.52177812812705   20.84922032461595
P        15.36109632007721   -0.48362389656498   21.94311360953764
In       15.03140570882969   -0.29845304602559    3.11333830484486
In       21.48317579473262    2.79840533716881    3.26038500775056
In       19.64989681590640   -0.51028647279915    3.59211754756558
In       17.53043110632093    2.11137358844265    2.07141638575156
P        17.42888959641958   -0.30563923133810    2.58863553866978
P        19.57256594448085    3.46078667065102    1.94033604983647
P        21.35445958627020    0.83404328174791    4.67791856152334
In       17.43479810139407    0.07701154290364    6.93105829367022
In       22.73932432605664    3.88064411254198    8.02112973597664
In       19.84884664418692    2.07907464856087    7.97159685516207
In       18.69127292663198    4.70685153289686    6.06764848911914
P        18.28568904013898    2.24966837812450    6.05376320215813
P        21.03852808668552    5.02482010123867    6.68880760865344
P        23.65928019338003    2.46421597646239    6.25130480562185
P        21.63608852084695    2.36762987381164    9.65902806511749
In       16.55546737100526   -1.18066587380966   11.65637207931590
In       21.01284821316964    4.28223571173713   13.00195667006317
In       19.49462768004943    0.69566170175348   12.93768575129403
In       17.91980010892639    3.27869954394929   11.27856264599373
P        17.93503366070130    0.78582761367322   11.02175217782017
P        19.87641813925581    4.71435635181941   10.87482833306801
P        22.77604826123452    5.86922627313092   13.64697998082618
P        21.14541213068029    2.07776972249743   14.14844378480050
In       17.03918466443895    1.36718330197647   16.14985936911040
In       22.07495265917523    5.36180810806351   18.52554651963234
In       19.95479488986394    2.78827941815316   17.26747164795711
In       18.65064329896496    5.69030919449460   16.26437479988564
P        18.36474668988243    3.34682227985822   15.45418513663590
P        21.06035868612087    6.12892946208868   16.43608034065497
P        24.48646519948554    5.52574599324554   18.94271253820248
P        21.81539587680326    2.92097990992640   18.88908221384108
In       17.01141290391017   -0.90846116419712   20.19393652284955
In       21.47728321439003    3.63376909865032   22.69749167276038
In       20.91912067365846   -0.14773675276178   20.66459846150659
In       18.43268143622913    2.31107681644777   21.40544906759082
P        18.83291617310657    0.62664395903285   19.62934439941882
P        19.89952367810893    4.23964780269830   20.94277334616728
P        21.47845226445995    1.21129099683167   22.59211199699286
In       22.81753287251026    0.27358453873614    9.11973454526992
In       24.68095014405525    0.29998941758981    5.86187290471950
P        23.34103936374094   -1.17161417706700    7.24694277976344
In       23.22239085442053    1.21391867390889   13.13572596758981
In       24.07493039218906    5.40660609532219   11.64160563201235
P        23.94224550528882    2.97776163765002   11.62769082449222
In       23.42397892746098    1.85452134389311   17.36252524200153
In       24.98993290814136    5.04962006873442   16.62056850549210
P        23.22304988098597    3.62973788060061   15.67613079751407
