90
 energy: -6.475112886723 gnorm: 0.000459624013 xtb: 6.4.1 (afa7bdf)
P         8.17717582872489    9.40579319409442    4.21422206848218
In       10.71592805664582    2.72933333511413    4.81911918547080
In       10.77823676462664    7.15193921629792    4.19489312148389
In        9.15351645395818    4.79710764505271    1.67170438667956
P         9.86977964601072    2.64331963100051    2.52571854254587
P        10.21781079772547    7.00811297326142    1.78437412445666
P        11.74388456546021    4.99069928442767    4.98798631871062
P        11.65123697241831    0.59216329914539    5.61116230230153
In       11.44963160351740    1.12801056050058   10.78521000540874
In       11.11762940943988    5.61521200738373   10.30943941923362
In        9.13415791840498    3.17684863218817    8.26680999661321
P        10.31439651153304    1.07569476714709    8.60689653882451
P        10.21600093931825    5.37654293764988    8.00741105080909
P        12.25461498126255    3.48193728201360   10.90527973255292
P        12.59594646488127   -1.03529277159195   11.05131669422898
In        9.18300885819133    9.26228375264559    2.01009158458152
In       10.91503511372670   11.78800634035511    3.64434151556277
In       11.14032755116191   16.20154355131617    3.76916952814471
P        10.23459403909998   11.38113537477802    1.32374869973072
P        12.08353570520017   13.96639404264853    3.97665414035747
P        11.62014598891516    9.49755250123613    4.34711544024827
In        8.96357711017324    7.47655015210919    7.66782137353218
In       10.86801545795739   10.06761822680665    9.67667275499603
In       10.58849128517119   14.54102577644323    9.17298962820434
In        8.83199545501010   11.90267863388135    7.04058029945423
P         9.92708808243755    9.73018280192790    7.40295700412636
P         9.82601357250782   14.11560066570171    6.89694527957764
P        11.67169668029366   12.42029849561908    9.81454235642964
P        11.99057211868681    7.94408613366529   10.33568349348566
In       12.49538658337505    0.18416588152493    3.35650470272529
In       14.15389500909909    2.73361113401251    4.98775088438367
In       14.08512566264278    7.23833052329022    4.44479919491886
In       12.59280176254568    4.65278636346206    2.67398835089780
P        13.49389468370909    2.32526100043957    2.63001122097900
P        13.49457075107291    6.89510045342650    2.06534306490972
P        15.11436063179456    5.03768704838127    4.96248664743530
P        15.09232551737874    0.52535846072366    5.59113811620846
In       13.44295111967372   -1.43737505906018    8.80995013027845
In       14.80544647149267    1.34656304129314   10.63861760627572
In       14.68742666284247    5.83198481630883   10.07478533708714
In       12.78843796879069    3.27443764119827    8.50057496715861
P        13.71776091860267    0.97785134852231    8.43141838225944
P        13.67319014837812    5.49635034982581    7.83073911450122
P        15.76664760950482    3.63503774204891   10.49739140301354
P        16.65768613906542   -0.26076728086562   10.54834839914224
In       12.62762016911179    9.23114294926497    2.08745869934442
In       14.17294777896050   11.48493230778921    4.10734669675931
In       15.36484359598393   16.06945258394235    4.01065999213194
In       13.31604160310970   13.80609491373037    1.82336244133887
P        13.80868878608080   11.37805458482559    1.66238522702016
P        14.76056531619363   15.78968635283778    1.67999675875322
P        15.39146293772259   13.63580624329156    4.31260971222924
P        15.38242604153686    9.36116336980143    4.50361043905706
In       12.51294715272286    7.69139849644950    7.92752395331877
In       14.35355565602518   10.10539668615318    9.72337351712981
In       14.05625013337559   14.78502236637297    9.24769782447332
In       12.44482834567440   12.19939003044580    7.47352171128613
P        13.45550963747510    9.92789766448142    7.41197725658208
P        13.29068166166274   14.45556554404265    6.95002761965469
P        14.84341588930227   12.53260787715249    9.88251443764709
P        15.74729031567120    8.09407003924954   10.24898174381150
In       16.12211094991806    0.00438194084129    3.44861538677205
In       18.95481055788705    2.55260332268935    3.14720740311405
In       18.82226294590889    6.17658305691211    3.75230397060678
In       15.92922680678607    4.71996910326765    2.64510181195386
P        16.54046348077334    2.31584616017258    2.71362533461573
P        17.27788780094826    6.65781778261357    1.89127849619700
P        18.42382447219807    4.07845987774576    4.98808407005296
In       17.42737366105128   -0.25088534601343    8.25954824260918
In       19.84664092164086    2.62935412233891    7.91064575269719
In       18.07288586318405    5.78629734602469    9.50358034674876
In       16.23424685055310    3.29500032765780    8.09403997851959
P        17.79074972322769    1.75015823851112    6.87116992765463
P        16.85096584903902    5.58958525976014    7.34515405225494
P        19.12356217263747    3.62009117556286    9.99950571648451
In       16.25109485350108    8.88664441927810    2.23733552022336
In       18.83500995309266    9.97003449956103    4.10965213225236
In       19.05974789168691   14.37220379253851    4.42021596821841
In       16.65238157392788   13.01491639660385    2.26228392014680
P        17.78764448517818   10.81644034085453    2.03152722269964
P        18.26008496978787   14.87673564246760    2.18913745040392
P        18.43635678323610   12.15360732580931    5.17964862426835
P        18.16013622154595    7.93271280605084    5.34633580507761
In       15.96758491333152    7.89604717598619    7.79408195635585
In       17.96830867164478   10.49318389648300    9.16851255454242
In       15.78262410796446   12.34266995612287    7.59458264651731
P        16.80323237663877   10.12469826179019    7.00221543200509
P        17.30719354617173   14.21750676381696    7.91583780806209
P        18.75760982447634    8.16666948551409    9.39536157153571
In       20.97998867905323    8.08858295172624    8.40745875837984
