70
 energy: -4.825865216312 gnorm: 0.000677612083 xtb: 6.4.1 (afa7bdf)
In        6.15655595053988    7.69998866780331    5.08405285587878
P         6.93325772685947    5.39476397289927    5.19492147245538
P         7.39037900826611    3.49934283641272   11.14568704213656
P         7.87489353410608   13.62824979117742    4.32141476024854
P         7.64731046320404    9.60128391402155    4.71718381190068
P         6.90134202116986    7.31040191444666   10.94875674603406
In        8.99050445707882    2.61384233757674    4.89107105307828
In        9.77712872277156    7.21224072829655    4.24291418537671
In        7.45504124520054    4.90240572146408    2.84273210501763
P         8.14054662943859    2.53989203747442    2.58392389484768
P         8.53555646036688    7.02870111007341    2.11350043077864
P        10.13765207096603    4.82821176465055    4.85708816833301
P        10.03597867078537    0.50096367127525    5.63715912271572
In       10.68634474778117    1.41673976249474   10.55990838507176
In       10.10656939265846    5.52393352609122   10.08078597555223
In        7.88107381437997    3.22778626852012    8.79383771161000
P         9.19831469729522    1.16332170782111    8.63330336469041
P         8.81011912040167    5.37711911270076    7.95343928273526
P        11.74152362334782    3.64952450151051   10.33437936989668
P        12.43180250243888   -0.30263862598398   10.55722008205198
In        7.85290734453465    9.41801206762578    2.27109845522269
In       10.52654152508496   11.40621382969204    3.61261358326123
In       11.51472664909857   16.05303957930132    3.60087792749340
In        8.01859422102616   13.30458099923357    1.94319460417453
P         9.30795435126868   11.26417929226127    1.46212260744319
P        11.65807479612748   13.62406420424482    3.72019919907262
P        11.38869660674774    9.14545951300860    4.24776866988225
In        7.51620306107032    7.41616584385326    8.60707973285330
In        8.97299482869985   10.05125308003694   10.07276234313946
In        8.61677309210982   14.14223079894337    9.69162247179050
In        6.78359489385923   11.82808762697304    7.48521685628775
P         8.04675105061539    9.72870153577896    7.78119934442331
P         7.98766992314947   13.94725792311539    7.34357917119093
P        10.15347421699688   12.21458998707638    9.74304284000499
P        10.37715042869979    8.00196910416436   10.21627778774220
In       10.66987237666420   -0.10220668682214    3.36644607727159
In       13.72493602440676    2.48960712193894    3.77774286244106
In       13.12096411827265    6.36578213143570    4.15313747533491
In       10.72347164434156    4.48768755858031    2.46119746131771
P        11.47161914348469    2.16400957923559    2.87498990324138
P        12.22986726631242    6.35651108381335    1.84987040409731
P        14.54571666739751    4.48173920487298    4.97923374559866
In       12.26992831654949   -0.87344411947614    8.20850134055414
In       14.62504298091633    2.02730279930418    8.47652364573173
In       13.22387029569586    6.48425364637695    9.24446998553005
In       11.53983410685002    3.44533504541127    7.87284060165955
P        12.65308732780967    1.32776336864285    7.18587220824315
P        11.87989030186348    5.83126466703834    7.25080711966827
P        14.49130346781347    4.35466252382113    9.27196418911831
In       11.38958165575641    8.68991001604291    1.78562219590340
In       13.90725267039124   10.82405806318837    3.39248808806733
In       15.02334486677974   13.79953163508486    4.65141253278821
In       12.38154343204950   13.20451911061985    1.38234407250692
P        12.67434244895952   10.74831568113183    1.24029194109939
P        14.56221136200609   13.93077701435883    2.26732131060508
P        13.76455435818168   11.92906722946470    5.61027834503819
P        14.43902979309846    8.48625522984985    4.09481057781399
In       10.67393012276861    7.95539483369825    7.76095068323979
In       12.72136116274661   10.29997548614072    9.31711046713007
In       10.55587494626696   11.81791882516052    7.32442102734122
P        12.07198670182519    9.84585533616483    6.94550293654874
P        11.19376015316740   14.12306659919781    6.81251234023132
P        13.19791613691000   12.71519017964433    9.27027523169753
P        14.48249672995419    8.58472632576264    9.63491411614559
In       16.84236177126252    4.39154714902547    4.15228363169829
In       16.46480306569160    5.37433623234828    8.20402873885420
P        15.43583404092043    6.84387531607649    6.51242251360063
In       15.89806308790485    7.88995397569373    2.23295209578864
In       15.87133388154285    8.96749299004780    7.65981676506405
In       15.54582422532584   13.09312474109510    8.90410795469224
