104
 energy: -6.859543618870 gnorm: 0.000730222233 xtb: 6.4.1 (afa7bdf)
In        7.00775952811865    2.94881598137878   11.04864743429828
P         8.19065342131621    4.92414164027885   10.27504136421563
P         8.01755445928150    0.75370535390301   11.28039548196680
In        7.07462466719426    2.34080332561478   17.10436389339181
In        6.98442209483665    6.50418028983544   16.19116537670440
P         8.23016927541805    4.43321032759550   16.50525191300255
P         7.98553209735156    0.09751668596079   17.29731012276921
P         8.36085693885449    3.50679824528157   22.59098355210998
P         6.64380095644155    0.53832048435150   20.56102587904627
In       12.28776020660740    3.16825168268846    4.64297603152709
P        12.68972184205136    5.52886476748388    4.60745718088291
P        12.30766808609587    0.98473566952155    5.62964335987097
In        8.73978492027918    0.16341003478340    9.03362122191606
In       10.68726830424014    2.73386299082156   10.65845299898390
In       10.97224201237203    7.30056973913934    9.68474378596511
In        9.23870507395879    4.47500568388408    8.10094668530394
P        10.03674382126798    2.13680502339311    8.34783958929752
P        10.34833232523290    6.57008664602249    7.45427743151617
P        11.61092085983340    5.01956402991235   10.35837379991329
P        11.34975142906180    0.56063780139096   11.60629642524245
In        8.72770482254499   -0.53360983098607   15.07390040554457
In       10.69494125252819    2.16001190025708   16.50941252895953
In       10.63384486282947    6.67489085680957   15.21639035095921
In        8.86827019693776    3.84488863760108   14.17880418719624
P         9.78901130457166    1.53822643577337   14.28601740204336
P         9.67516905425203    5.90704850775129   13.10859912519509
P        11.37868963718232    4.53511885768551   16.20255843068614
P        11.59889555264894    0.06996835148003   17.44318635292790
In        8.71970022660542   -0.54687306984366   21.07332348313518
In       11.42454782559804    1.67354391526942   22.39119981629156
In       10.76539664428656    6.09169596712225   21.22600509785787
In        9.14758464094569    3.23059874206400   20.31699464044373
P        10.36763714550959    1.06383470728931   20.22074767921080
P         9.70760727051810    5.33305496399648   19.15404276289237
P        11.94000929004372    4.07905768091029   22.03638508417615
P        12.47020893491578   -0.50018288630234   22.85592593366215
In       16.59176146039070    2.66769724760961    4.89632244432531
In       16.39999673233431    7.43587694122693    4.52413242954652
P        16.64871970053533    5.08891103261500    4.96065329055404
P        16.09263115532205    0.56026509876826    5.92508595049842
In       12.35115033375185   -0.16280066756037    9.49614804200735
In       14.07851578302983    2.53362250816407   10.80017814773190
In       14.82897581161308    7.12239451422718    9.68127848140400
In       12.71535369356934    4.31391603001293    8.25101967793456
P        13.30505227919363    1.90694577524786    8.53508244104216
P        13.90369130028378    6.36612093988639    7.56642729861746
P        15.05896098030493    4.79895876360379   10.46852104331650
P        14.73326493304755    0.37395447549858   11.80439484505338
In       12.43281262031787   -0.66910723616130   15.27727787441279
In       14.09010391182099    2.17970841977762   16.45210266318157
In       14.17837439548477    6.77424969501010   15.04778981334723
In       12.25774140332956    3.87038454110811   13.97850844517180
P        13.03804872839956    1.52033013505683   14.30499329329712
P        13.14807270658237    5.95629702232074   12.99716332431426
P        14.65638343668875    4.57519754593992   16.06291093277950
P        15.18669778354105    0.14049798708028   17.29518737830778
In       13.20561907338344   -1.09099425232881   20.62764308131622
In       14.78383224341605    2.12152914358944   21.99670109454593
In       14.18938258234193    6.41207927905321   20.78847690591453
In       12.49701467305210    3.46384629961030   19.70488722448207
P        13.61531955425089    1.25412788456587   19.97974704612193
P        13.07067020933597    5.66195097408445   18.74862085955314
P        15.51326256755508    4.49498872539657   21.64493937622077
P        16.01296887351855    0.12222664870229   22.75791367926647
In       14.40019119242212   -1.11954072300787   26.34658633656179
In       14.15810125143672    3.52197178655477   25.53954188400197
P        14.40448430021505    1.11606939580985   25.48342608501362
P        15.35389355922434    5.38931192678700   24.62396349088164
In       15.79351781877288   -0.45524750467466    9.76593219091572
In       17.40882809867628    2.34313952136731   11.12531809871765
In       18.65429079434669    6.32430782480850    9.99404917520900
In       16.15137323665752    3.95977156373222    8.40399124570789
P        16.78574732644681    1.60243150537242    8.84714775713342
P        17.75998369177536    5.73054357319073    7.82219723154095
P        19.04517231765954    4.21901255114965   11.19294503817025
P        18.29535836882218    0.16247592108717   11.87993597055394
In       16.20883058786271   -0.72553952705426   15.26674526749327
In       17.63933653119519    2.60985177072964   16.31381133853979
In       18.11862132816044    6.34708316958978   14.97771686657883
In       15.56230175947278    3.77286311641820   13.89833305536594
P        16.54236925266897    1.53629984588219   14.35605696810538
P        16.85440368545479    5.67390389313282   13.02266251890300
P        18.93677346649876    4.72518864831565   16.63447516503479
P        18.87966094876554    0.66478719020863   17.18262295331815
In       17.09034756927377   -0.68762666775621   20.73405206758125
In       18.05718100395125    2.62887387529349   21.51828345707251
In       17.68663163612382    7.08534331135863   20.01247247439543
In       15.87792440533403    3.76555174220247   19.29353436575443
P        16.90149696306986    1.50772135721463   19.62342967767799
P        16.44478854095050    5.94132877409458   18.26489963100942
P        18.53608702732227    4.98332912059003   20.95651653980983
P        20.02546938365979    1.40912941786899   22.29329076558114
In       18.70650396032958   -0.22471727857581   25.37736382093776
In       18.97939591306358    3.61276953799700   26.18332937883813
P        17.82369329261109    1.96030042067493   24.87752139681320
In       19.52447787322453   -0.85954913552137   10.08642340450846
In       20.73926586525955    3.14384949820214    9.81639376730200
In       20.27855736654179    0.23257849151574   15.24730653960257
In       20.80472159027102    3.83651194830664   15.25214256022917
P        19.83807306169482    2.12583617690153   13.77026791415862
P        21.62430270421406    5.56181448280297   13.75460539236286
In       21.18724598925668    1.27520903715967   20.17662888517433
In       20.83185178447682    4.91932417210008   20.06611060950053
P        20.14318464457449    2.97096065563565   18.73675482051173
