40
 energy: -2.829615403745 gnorm: 0.003338685230 xtb: 6.4.1 (afa7bdf)
P        10.28867954861829    5.90351541501493    2.44464115410194
In       14.91224863856397   10.07758064452983    3.66096156716942
In       10.98713972883917    7.65608839230244    3.98799795422578
P        16.75302281591303   10.15907592754454    2.06156767495509
P        13.39393060108192    8.18361662840274    3.94959521805506
In       15.17468601106305    3.82146295945355    4.11805957232046
In       14.98788908925088    0.87988256327012    2.12403260961509
In       11.43652551177856    3.73706231268398    2.64343464750198
P        12.69379299916274    1.68224572954794    2.17888961735670
P        12.98787315679888    4.96860442122615    4.12612089741931
P        17.23588490426834    5.02032994414519    4.75547496426276
P        15.51268398995830    3.26186872588293    1.73727734711165
In       13.55574096975639    6.43844698140937    2.18802392824830
In       19.15358931409835    8.22195076742169    0.59296433616843
In       16.92984820345132    7.03175773977245    3.34973679036746
In       15.91280582555514    8.45626091139709    0.48152047864740
P        15.87111031800210    6.07450628228683    1.30784003189050
P        17.55594375988320    7.83775839345747   -1.24627024650404
P        20.06935422531124   10.44690003447607    0.09408544378750
P        18.95677155603712    8.45297470483576    3.06190589887932
In       17.03070540404611    3.28711381651754   -0.20100396949139
In       22.77137826309872    4.31626807460411    4.28622737037247
In       20.80826035532641    4.33839268783451   -0.20543455556406
In       18.81053171384990    4.23320384524377    2.99048746163650
P        18.58517887146688    5.02374505642772    0.63043325219050
P        20.40865217177951    4.90865774862380    4.77382965873759
P        24.80712715732631    5.72656930697327    4.24933792757808
P        22.10664847425672    4.15863796237302    1.88817807093294
In       20.91677157142614    7.08854077850866    3.71872878205895
In       23.68433111136861    9.22263660386308    4.13623184675710
In       24.47518213164369    6.52876214669433    1.93255104162239
In       22.12681691864672    9.47869722173170    1.05927665460371
P        22.07320814964975    7.02925085918178    1.52608427859871
P        21.61199846949048   10.24614086382003    3.33510721471921
P        25.44078480307398    8.75110682185447    2.48218907755149
In       22.23302916520081    1.69683404739550    2.17926716049398
In       26.14411901449289    3.82734229653240    3.38272745341289
P        24.59577870545998    2.08193594477622    2.61808255836312
P        27.56451188262204    5.30665755751817    2.02599894010175
In       27.60350690637399    7.62034602870166    2.76943988975487
