76
 energy: -5.066557621089 gnorm: 0.000449989698 xtb: 6.4.1 (afa7bdf)
P        11.27348669729615    1.43800349794348    3.39947617304268
In        9.62149994990202    4.50867831127986    7.56276285374638
P        11.22328716372840    3.46528241023080    9.09817992648893
P         9.26022352209314    2.48822220125038    6.25182709352465
In        7.94129459076042    3.25314796243885   11.49495587707674
P         9.85466526118017    4.30764125422894   12.53137437753736
P         8.37350520949182    0.96689599655424   10.83015258046805
In       14.30839890417060    3.16274528964617    3.67920228692215
In       14.29744525616295   -1.55826470859687    3.99400043570206
In       12.86691204535784    0.90973533454865    1.63621461072633
P        14.19487368495707   -1.15140889851180    1.60319440511875
P        14.28503137950931    2.88655992113359    1.24281190797509
P        16.18253223712631    4.63660559587726    4.28417820265760
P        14.71521813124593    0.82906033640410    4.46947606400761
In       10.09370557291425    0.38680369400813    7.15858055901925
In       14.55830990194228    4.46175858372394    8.98564910843183
In       13.50714112129998   -0.00295309364334    8.31448179673139
In       12.46929337347770    2.95068666987569    7.01589403612419
P        12.36831022513305    0.59446546205133    6.19077478511980
P        13.98961830884466    4.85694888909271    6.62867859053057
P        16.93777632035497    5.04218997727543    8.80010322622045
P        14.62673844393088    1.98126502350276    9.29824092744651
In       10.72356018454381    0.64790152895602   11.33056591578041
In       15.87979764120653    3.78068038372310   14.15446567265099
In       13.84371543866032    0.96237367306156   13.29916538943731
In       12.30407724800497    4.35455923925488   12.48958448680937
P        12.69259366993188    2.13068285022671   11.45414460834205
P        13.59441056737295    4.55284232218677   14.56321892435378
P        16.27761291435327    4.32729848752817   11.80523914059674
P        15.99532156980760    1.31866250155044   14.45567013250000
In        9.08607641287870    1.27726764894483   15.24686842189284
In       14.39856686917118    3.67361637939203   18.62277802622660
In       12.38398224126304    1.46525971887404   16.81715276545674
In       10.62657846945674    4.61667760078915   16.55185267191964
P        11.08301824078309    2.68117621861976   15.08745999150129
P        12.05793502147040    4.37674129119901   18.49396929463165
P        16.07383745006354    4.95988628473358   17.38867001984097
P        14.78601257913831    1.57553093290887   17.36736101554538
In       16.63125894520187    0.92930079012600    2.89964953567990
In       21.61344185669283    4.28765254828917    2.39994717104509
In       19.66981344200982    1.91178638335622    0.77227941201500
In       17.87904280539045    4.40298512807478    2.50781670729610
P        17.28412909791716    2.45578782568889    1.08197310731573
P        19.75905273084161    3.40237840996050    3.78414748187591
P        23.69812765430196    3.36081913166357    3.25502844033239
P        20.82752699510083    3.94700134414318    0.11388709138567
In       16.27633194626895    1.84927483329526    7.46295789676883
In       21.97622005881208    3.85763638275872    6.79871270758715
In       19.63603692013165    0.83154772868326    6.42902737620243
In       18.64461038080054    4.39843490518594    7.16304384972610
P        17.92482104936835    2.49339096868201    5.72766652774137
P        20.31292953689240    3.14762485049433    8.51463678183383
P        23.85993472687676    3.45245461209181    8.33827881478583
P        21.62043926499379    1.86137801162220    5.33969246103498
In       17.11368464792580    1.03297165074543   12.25418408285855
In       22.15656084672535    3.06982553643121   12.16301945483473
In       20.37151963263056    0.31030339406870   11.15869354941353
In       18.73139382402379    4.12251161036297   11.73919484308374
P        18.62660264073170    1.96086830048958   10.52473782141805
P        20.05504545745695    3.01628748791917   13.47746948893868
P        23.95001172423046    2.35513221283773   13.72374642255341
P        22.16919752814528    1.65450091407767   10.09470020991763
In       17.11046453874379    1.17236558764508   18.06985657544637
In       21.76289586325388    2.58088624388774   16.75992159256877
In       19.63705344111248   -0.21791017634450   15.59941416873672
In       18.32927972582359    4.27976184865809   16.69417854544914
P        18.40625102130781    1.86844138518064   16.08314791587480
P        20.20743521729802    3.78106289163213   18.18454578658762
P        21.75252562489401    0.89261232214009   14.93871569938672
In       23.28651757770543    0.42633089566249    6.46519038290039
In       25.88591587367905    2.98202477742783    7.06670714794994
P        25.51836192229645    0.60558297410499    7.41261975636877
In       24.09903821218992    0.44140500668259   11.08172830427093
In       25.85238169767647    3.42431718294681   12.63728184279782
P        25.76813425396718    2.15942662949299   10.56864614392473
In       23.30140807342375   -0.80396069490817   15.80173859898628
