120
 energy: -8.559210422429 gnorm: 0.000142892091 xtb: 6.4.1 (afa7bdf)
P         9.18296745700925    5.04439794951151    3.83204832190107
In        7.63746869056526    4.47971024970594    7.28560642988708
P         9.43595855975145    5.58495581291505    8.59970031256711
P         9.06855988626503    2.99322542608981    5.92539370260360
In        7.79746065766814    4.74821665327122   11.97394060465189
P         9.37974747450685    5.87746218065912   13.52237759148058
P         9.22978326560569    3.37908166199495   10.49256226465890
P         9.93386525970804    4.08117382594561   15.86902917218730
In       10.86549988923572   10.08640146969613    2.92239697434203
In        9.35911835558338    6.74385924444577    2.08674539969569
P        12.55625926129368    9.83445958602708    1.20167124842273
P        10.81048472092540    7.77956952432983    3.80047972814783
In       11.29256646211016   10.71484623098116    7.22132941110022
In        9.61992055344000    7.52246940047809    7.02234130318956
In        7.11883729203236   10.05111470426160    6.22729302734158
P         7.99871675992380    8.01852578793255    5.23670233190663
P         8.98702433508081   11.44574116724652    6.86391801207317
P        12.93902123335258    9.61028602389193    5.75192379953767
P        11.07283458652091    8.70674257279121    8.65943824792278
In       10.97983715417910   10.87327881466938   11.73615816268845
In        9.45746846078522    7.68730162883190   11.78907492406771
In        6.67218325044216    9.62183551648765   10.91767991460258
P         7.78699902656418    7.67112944030578    9.95538284066344
P         8.77887215517326   10.81599996320301   10.65273222789488
P        12.89123503816582    9.90688584924498   10.49108683920644
P        10.93378661785965    8.98564379112346   13.34354299891192
In       10.67022204414656    9.34653196589919   16.48777279001943
In        9.22936133824977    6.02845239412199   17.20973946727093
P        12.90823640186694   10.17475005742173   15.93314409208355
P        11.09419833554129    6.96549062847675   15.84809361978839
In       15.07963367205615    3.95490657399944    2.84053748648119
In       12.88472027949077    0.49869874828416    3.00671296446766
In       11.34034881547325    3.88470972077466    3.51450854096442
P        11.11361890731483    1.55818776662712    4.28819158469276
P        13.40929396331491    4.92473556378928    4.38161418457757
P        16.92383797762809    4.88456853820303    4.20254807125210
P        14.83730753402001    1.62067896269290    2.05428588075370
In        9.20157822524782    1.15273037912105    7.55872721445975
In       14.88687403099758    4.25278146137282    7.62637124902236
In       12.99260965734531    0.81108789930555    7.54201866961445
In       11.34476414003311    4.16676324886459    7.83832178891931
P        11.18849499000346    1.88652419702471    8.83263836952363
P        13.18962021832319    5.17672533478849    9.17862176078019
P        16.74133862336866    5.12744452077698    9.01941620010640
P        14.53056477857642    2.22546887398873    6.24749284898640
In        9.16233127382678    1.54213251123812   12.13764590571501
In       14.63399952219410    4.52519267211767   12.41693573443188
In       12.57149276689523    1.00688569331492   12.05972470790382
In       11.24220974100981    4.49309936796463   12.58371953518794
P        11.05347913233143    2.21154685274968   13.59942393064572
P        12.99142035485384    5.54372077562854   14.02813952950349
P        16.57100397595816    5.36278578529692   13.76928644972186
P        13.86848981526672    2.72845124315726   10.85312317047571
In       13.92401146589582    3.96365322766701   17.69894485457528
In       12.67012559491784    0.82975247130536   16.66898497262386
In       10.58481805681115    3.07127040269192   18.04603801374077
P        12.14247930876435    1.40120448613930   18.97821055299239
P        11.97368207114928    4.96321516572376   18.88353614222983
P        16.08784256420967    4.44069630563763   18.80957707740135
P        12.92182992051739    3.06676314938785   15.58648711921821
In       13.02281041728478    6.95939818831330    2.99966838889922
In       18.38191370751397   11.01223583421092    2.88633489664089
In       16.77493200176891    7.08903701277317    3.06813815187013
In       14.76366589445172    9.88745782164303    2.26690185563358
P        14.83910040145630    8.24401710036969    4.14782266000569
P        16.11889089181452   11.87304114053143    2.75301545160272
P        18.61587052916513    8.67974681871533    3.64214982380370
In       12.92658952179913    7.25020033190322    7.82698839403021
In       18.38085072816844   10.82378659897306    7.12988735703022
In       16.61170143386498    7.27474353221635    7.77292866380838
In       14.84310368913359   10.31916456422875    7.19085374860086
P        14.77760822180224    8.52132210113918    8.93219057974610
P        16.72222337889496    9.68976814275014    5.67432278548606
P        20.77950887377110   11.12212803811096    6.74621257070265
P        18.47418338315612    8.76708440015631    8.51823460381087
In       12.90364142217523    7.62934670064025   12.64891824962138
In       18.48105903109471   10.79414000250577   11.87502664593702
In       16.42788186094779    7.50887049308367   12.50492083398981
In       14.78801149043367   10.55422341188335   11.98950246374153
P        14.76221394019853    8.82967918686455   13.81020689486078
P        16.66177113182355    9.89012164123700   10.46966968587305
P        20.61049338839463   10.98317077609403   10.68410010959792
P        18.50593038057649    8.70798400882113   13.22586823489508
In       12.71897789649661    7.05544391256469   17.75123699635079
In       19.06808661997421    8.57637988593220   16.32902534153239
In       16.80217877195621    6.26606077453113   17.30110507386020
In       15.02327180360184    9.29873443890259   16.88312230616058
P        14.66491787194216    6.89909251276366   16.17652718452333
P        17.11326060424829    9.92982976890694   15.72252868831300
P        18.61999501148243    6.23968362461382   15.57893416364643
In       17.11273757773913    0.75942014970204    2.30301774934398
In       18.75250005267919    4.21048158511936    2.67585952313318
P        18.83464404262948    1.91539217511927    3.56721668291872
P        20.52469754318472    5.74591489550101    3.44598866379780
In       16.68163578652677    1.09009284794966    6.59805813546085
In       22.22166221464085    4.73173721610853    6.75067847340246
In       20.73963231678012    1.37196384665782    6.68221155576678
In       18.44622111162613    4.29994210776118    7.42032121352272
P        18.64033909708478    1.85985151984522    7.86118322707674
P        20.40482066424859    5.65355739145816    8.15165602829000
P        20.78013658146226    3.38747296878243    5.27083660213404
In       16.06809483601964    1.61597806016926   10.69617466053837
In       21.94531043239702    4.66721717289235   11.43516175134495
In       20.20856723446581    1.41933344599638   11.43766862474402
In       18.32080004783222    4.43319604678978   12.25687158409992
P        17.94677467828783    1.98181433489661   12.22455427542693
P        20.37488829620851    5.57196070833273   13.10171565644905
P        20.48684409499166    3.35408826049001    9.95156993448158
In       15.24883907865697    2.29752117190029   15.04776978487421
In       17.66823560074010    2.85134728722799   17.78330320614228
P        17.65554381316445    2.61110958946611   15.34683586965880
P        19.74464736264574    3.85108089906733   18.61649842415352
In       20.23198412612163    7.72130440591708    2.03772742010935
In       19.94845225676483    7.70415403469099    6.80318139756808
In       22.81182112277711    9.80681706589759    6.63311351757647
P        21.84982379898225    8.03431764464552    5.27697440872334
In       19.80233208298343    7.43448262764766   11.52498906570178
In       22.55173584793465    9.66211230169737   11.30045940379965
P        21.65946930154045    7.83774311200877    9.95323845003550
In       20.45917602239543    4.93496838415828   16.57493163319144
