192
 energy: -13.037241066730 gnorm: 0.000157653585 xtb: 6.4.1 (afa7bdf)
P         6.63858427332340    4.94463949824989    8.20659146076148
P         3.07001808079611    6.84665848065375   12.01526674970800
P         6.30946952334168    7.11623393168914   14.14247865066551
P        -0.16225193536129    7.80140530232917    8.89767490655611
P         1.16304592923154   10.13453599626600    6.77043705672903
P         3.67688105020278   12.17077753649442    7.70958598435610
P         4.18772155418436    9.53944610698239    4.78941829247926
In        3.22844424871790    5.77190451113583    9.87686138109799
In        3.87024637410431    9.40269471115819    9.96643618508443
In        4.17549245667560    8.31799493856246   13.65290280100007
In        0.63172736594637    9.04212570890603   13.07004443171632
P         2.22683711306707    9.23236489344579   14.90361665443582
P         1.78705247539282   10.06238852334669   11.13456425688128
P         4.69156806766885   11.47485929806497   14.74257883723343
P         5.47064811908417    9.51872152578293   11.85812193466522
In        3.33546943827779    9.14313145312980   21.26557736799574
P         2.65064293012253   11.43357697471464   21.79921076808388
P         6.24285992306809   10.88187650153046   22.74435622159283
P         5.21354887163269    8.36307986972708   19.91046548037895
In        2.91811155909455   14.87922947300224    2.82562498303918
In        2.16930661749253   12.12612213617938    5.73821398771348
In        0.43725367089539   16.30113512515037    5.33952538407503
P         0.81696081188410   14.11556594533294    6.30765714261224
P         2.28099631553258   16.99067571912048    3.87790374209746
P         3.68154137065804   15.78038477594531    6.79148025281304
P         3.74049552375453   12.80564809556282    3.90784499203205
In        0.57314946892476   11.91469430451686   10.08930936496066
In        3.55417262851954   14.73424349217150   10.33321655480047
In        3.18053466947814   11.43609765327578   12.75773425396092
In        0.26155503842790   14.45544683941544   12.99496010104381
P         1.13011179791264   12.33567908785041   13.79950693715481
P         1.57869736746947   15.79425427908232   11.39354265797631
P         3.82000576008438   14.60465733389519   13.95202748950256
P         4.54348144826049   12.54276499800016   10.95999893902492
In        1.09321949231394   13.03604335859013   20.85695385679788
In        5.41376731901491   14.42957866211512   17.52187757987544
In        4.76887840376846   12.70442902275533   22.03186483296536
P         3.41594817632067   15.76257235310728   16.91439913272162
P         3.61335240900603   16.87171873340027   21.44281136520264
P         4.69586606500533   13.91941328655724   19.84925000741699
In        3.69151936449586   17.98152392895878    5.68038812291286
P         2.08365077409997   19.55408801540479    6.64008026146417
P         4.33449836463285   22.41117196355707    6.70195312667919
P         5.38000565356523   19.25139782319899    4.33531837524102
In        0.55942892003649   17.20851283470259    9.69204043754775
In        3.47003703257371   19.96630098180259   10.12344349956901
In        3.06133465725647   16.81614454584935   13.15168777224612
In        2.73395575623473   20.34283330524386   13.83588815279857
P         3.08292112171603   18.30989236617706   15.13405172989969
P         3.89272755919946   21.50429569090745   11.99118584851967
P         6.12232568622522   20.68367510513320   14.89549067672556
P         4.29262631169334   17.96311640335889   11.29815398087425
In        1.50129726617249   14.24560993776010   16.98787834847146
In        3.78209355404502   21.18135523806217   17.99155196143973
In        3.05754567441177   16.97434925343883   19.05631059283462
P         4.51624808353935   18.92720406354508   18.56394104445232
In        5.54152718956234   22.60984215210845   13.47766915469725
P         6.79813034046697   23.99583282280446   11.86715211080105
P        10.09345648646769    7.91064677473567    8.72693910009683
In        9.74466509582449    4.49816632141490   10.52784680497140
In        6.45935367171702    5.41574262088831   12.40975593738561
P         8.25904313850167    6.38507852549126   11.00583183599427
P         9.11141430274477    5.79958689581619   14.48400614189173
In        8.89849291469775   10.32370549067956    3.90410334002308
In        8.88306731185022    7.69509677035672    6.61713206144488
In        5.41256756951370   10.96728809783083    6.35642415424113
P         6.84410888971544    9.02126824130997    6.96705728584549
P         7.08967638972961   11.83376396485323    4.67699424344152
P         9.43589708623743   11.02546724508637    7.43802634883908
P        10.42010185176676    8.75450695171807    5.00303432614498
In        7.32573286313177    8.62084694154254   10.48462565180964
In       10.26661640499558   10.93653958860874   10.98721337816312
In        9.48837189316276    7.62867585981872   12.84715805930399
In        6.78103043677464   10.64662496396913   13.68132903988561
P         8.83870565977234    9.45031035031749   14.39546487782107
P         8.13346149737310   11.79682923872359   11.90215500821284
P        11.30427795554497   11.71046810569169   14.44289603423613
P        11.23717495847122    8.67482214290056   11.34233786127689
In        5.24442222737491    8.40623542106597   17.49529132282306
In        7.97093633416857   11.51094039183876   17.26575166253183
In        7.11257157547109    9.69274623305727   20.78687712070952
P         6.54131827670992   11.59950055245766   19.28334161362190
P         9.32383165531486   11.76038363609249   22.36848541315810
P         9.53802045067993   10.05872651995654   18.48636721952328
In        5.71192910140616   12.04199892425215    2.62867235999575
In        8.41378319284469   14.82797862201686    3.04921787285005
In        8.35435215650589   13.03849981384640    6.48145541871826
In        5.09224007442704   14.20052393114055    5.53256132018258
P         6.42517698702626   14.11919977010695    7.62761056995592
P         6.30189174571559   15.71565545829683    3.95350108155077
P         8.94243906324912   16.35540913680835    7.44525144473702
P         9.92364753361949   14.05466825257490    4.82019863665479
In        6.64305722458463   11.72587243127205    9.92313395128166
In        9.43236923278257   14.03940421853269    9.99567888708052
In        9.38450675112864   13.05384350412942   13.67461272394451
In        5.80382513280782   13.72075704283699   12.79917389724914
P         7.30300942355423   13.84108557466114   14.77328002775773
P         7.29474188204917   14.70742356668173   11.05093905932808
P         9.91460697126923   16.18570288202874   14.87801976361302
P        10.88287187873388   14.16616021507310   11.99732509577104
In        4.08231160808903   11.68160652654818   18.90809615201878
In        8.78107112035831   14.94456268821716   17.81332903552348
In        7.96911895074512   13.06257028778738   20.74300288019564
In        5.81616668370448   15.93867038452774   20.83191106331262
P         7.30370143156472   14.76447538304022   22.42511625799625
P         7.32876366472020   16.60356315040083   18.95529373765144
P        10.58402653015952   15.50321097216639   22.06470880060165
P         9.91669870989699   13.19201069386195   19.14775407926190
In        5.65771538497654   17.62016698795427    2.51864586277753
In        7.12213559098946   17.06980811902872    5.92727609083331
In        5.97962828875059   20.67871947396756    6.26444699114482
P         6.18035447179114   18.64155814095212    7.61570103686422
P         9.27655136673231   22.11427400170602    6.88140475633359
P         8.43843127735562   18.61468847673548    4.46963525831981
In        6.29728418003791   16.86494838888233   10.34944369278855
In        8.93907533777918   19.19858541879741   10.36052509006532
In        8.48370461098033   16.01517565527363   12.86024207332031
In        5.71469558564678   19.09845018525787   13.04065671351146
P         6.39850818229491   16.87005819495766   13.86634863272078
P         6.92406538540296   20.35380860361397   11.24568428384177
P         9.08545029121431   19.30364296540327   13.82752865735483
P         9.97735108868745   17.09296762039767   11.17330263045582
In        6.09934074348302   17.70445529565680   17.11389128834186
In        9.53557085181864   18.98373424080047   17.44096463595784
In        9.17669713900406   16.92217814311219   20.62749726703970
In        5.99949608087113   19.18892963153047   20.55250278922292
P         7.74985797093392   18.34759695425814   22.05861939044085
P         7.73193428275711   19.80598355135618   18.88421881045421
P        10.93614308516534   17.67817607384831   18.99391031482628
In        6.38593328042472   22.43879847034097   10.03143483893896
In        8.55766573540755   21.49031340960602   12.82142385534724
P         9.17351922454097   22.87527618231313   14.76007160143633
P         9.62994725520724   22.67773050092270   10.93725573718761
In        7.83009085281852   22.23911211986995   18.85858161072675
In       11.23159703546590    4.61424104966224   14.52325795558898
P        13.10921324460367    5.50967379029369   13.23671091567811
In       11.62733197222002   10.06743428161858    6.76054631295338
P        12.83008993005650   10.27849064184175    8.92082217647260
P        13.17263695784609   11.16201118895763    5.13087713404482
P        15.77553895087330   12.64403367667306    8.75680966753770
In       12.85458382835401    6.80453814030796   11.17905744918813
In       15.74114891309722    9.33967678237940   11.46592594004135
In       13.90906185520075    7.03297684824133   15.01244034359730
In       12.33475487645966    9.76142971546012   13.33880689157748
P        11.73591187518834    8.17063115235895   15.13271846106557
P        13.91245613136514   10.97130416496315   11.76752829004318
P        14.55900825711995   10.49951458410236   15.86078699353292
P        15.53714581729524    8.12187850248138   13.54465991288177
In        9.28915413733146    7.67349894021547   18.07934708160431
In       13.37914254345796    8.49607434723946   18.88075607862830
In       10.56545096708512   10.44272961108314   20.71116211272139
P        12.76511162171972   10.76430820039477   19.56343559803938
In       11.85381024767980   12.82463707576000    3.92060652412881
In       14.16569248298911   12.53831865038609    6.92893885754632
In       11.05602806953633   15.37127707359376    6.63002654708132
P        11.97078946855384   13.32630333370988    7.68837560860899
P        12.45514142786534   16.55149231415572    4.93836570708640
P        14.60941213996860   15.86457127888130    7.70955238211759
In       13.04612981907120   13.22828489753219   11.23344176988770
In       15.88657463049402   15.41045304072946   11.69883767080889
In       14.87274590189926   11.93395887603294   13.90404969502811
In       12.03350253592637   15.46602687130903   13.80375836544169
P        13.63745682139057   13.88297243413512   14.78448954165668
P        13.71537753944144   16.48260308462869   12.23497008104388
P        15.93649234231687   16.28438089166217   15.43058734939821
P        16.52801333267498   13.27820623793541   12.65534594129844
In       11.77467808143817   12.21750303081249   17.81933555028753
In       15.32045575821956   13.31039637183604   18.25734758698853
In       14.34304537065842   11.37212594474651   21.38293717996135
In       11.64004489993130   13.59300826751150   20.92599223438393
P        12.64200554728802   12.37052282999501   22.82045462553484
P        13.54305030030549   14.46391291904944   19.53320988487621
P        16.28443735203670   11.97855698618989   20.03118150778333
In       10.71236134221706   17.89557886859646    3.87765118946732
In       13.48328041065478   17.81581280459852    6.79803400654622
In        9.29931269946041   19.69729677630946    6.55390732643848
P        11.34075924119254   18.74052951150626    7.54080504037184
In       12.20202087770184   16.47346227414594   10.26841319851088
In       14.87381356988904   19.17705507545352   10.36751643863241
In       14.63794799872129   17.88696701594784   14.11139086462609
In       11.21461092469294   18.45286366505950   12.91645960896575
P        12.45539826939575   18.53300337682591   15.06872780846339
P        12.63392007476055   19.71679547763319   11.27164986682341
P        15.19469344265375   21.85124648802956   14.68846744874640
P        16.06150214256842   19.07777661406040   12.48036606703063
In       12.37655302235444   15.97101355048500   17.96158216908625
In       15.67817876778770   19.10633072496912   18.23907865292535
In       14.70275482746478   15.56409126667541   21.39335465975906
In       12.10094056368874   19.04793455047422   20.65912639875905
In       11.69167313510595   21.69318615286804   10.11976798409557
In       13.44834823856975   21.06625172073260   13.21319029318465
In       12.18137089051934   22.23385110469307   17.47099500394074
