46
 energy: -2.703399390315 gnorm: 0.000449595915 xtb: 6.4.1 (afa7bdf)
In        3.15535581916385   10.91477486645197    2.49630569195721
In        2.91796373389505    8.57840856880642    5.73069839101969
In       -0.23260622091710   10.52918285759419    5.26691577820585
P         1.28097913966505    9.82215387999123    7.03454245542533
P         1.31333769937884   11.85388340356730    3.85545126600970
P         4.53849403037083   11.45056229127383    7.29237512393474
P         4.40286619500651    9.66139772460861    4.15379409499874
In       -1.74173567799249    7.64210804885457    8.90326650328891
In        4.10066600531295   10.80846561567333   11.10547777580887
In        2.25166952246820    7.75745162283577   11.00518979561138
In        1.25793153797298   10.59212310980350   14.21561649532853
P         1.92321015189794    8.45014673613928   13.29736709632601
P         2.02951009870550   11.70746262283038   12.13873283339318
P         4.79328212645674   11.72581125439094   14.70611266440954
P         3.26408953680668    9.26985117422747    9.39870588710251
In       -0.22825852199143   12.79411376363205    2.20196594955470
In        3.03168035923225   14.82552145646804    2.95336440355418
In        2.93287488933881   12.43391937941786    5.70161216764981
In       -0.34731582536179   14.71024501512160    5.97241861135585
P         1.14448271656407   13.25511092670356    7.19831437554112
P         1.29336003644585   15.76322830059650    4.45332472117677
P         5.06849545443121   15.18274202688090    7.42092528006397
P         4.62045117783161   13.58937825349451    4.30905257264274
In        0.21306183665702   11.25575624695463   10.56271190918838
In        2.89070223434427   13.99501384893529   10.00302345349936
In        3.48732492778842   13.33675955990204   13.40105916447060
In       -0.19915572165315   14.26400800862491   13.12846235069417
P         1.66065584551220   14.43263088259202   14.67566493759765
P         1.00636247571777   15.12894504790943   11.15054817754227
P         4.19812661151795   16.97487839935980   14.27945036964626
P         4.84333266839388   14.10011760988951   11.45957344186400
In       -0.16318665557436   16.87166013691376    2.81689840334548
In        3.23194190144821   18.87343214339704    3.37143527589919
In        3.10326967612051   16.03001088697820    6.19738942167658
In        0.59045359004494   18.70117277059864    6.29700625207140
P         2.28610587001871   17.77402197068945    7.76840970884061
P         1.29387617647544   19.94766384842697    4.34225582081276
P         3.77216788405802   21.34775806800872    6.96661261733305
P         4.54776697495096   17.29285653068764    4.63672246679094
In       -0.59259267334481   16.37176843089317    9.78873644228695
In        3.98195219102836   19.47894795220844   10.27911948576274
In        2.71591894222734   16.53350684738681   12.36826394167105
In        0.31249009817384   19.65825565185741   11.67700292184654
P         0.71617837004411   17.76304606285874   13.12176743168481
P         1.72086926061217   20.21774835873914    9.78563163383719
P         4.36518603076687   17.10475033683044   10.61756443726301
