192
 energy: -14.130771688035 gnorm: 0.000439385646 xtb: 6.4.1 (afa7bdf)
P         8.38579363506828    4.14096991616158   11.83159252408369
In        8.12504599708930   12.33420777665848    5.16917252592682
P         9.23257298507617   14.52188673322749    4.89727904425132
P         9.06540071186930   10.07740145713978    5.55358175213708
In        7.35335611188595   10.53860330780869   11.21306427689903
In        6.90080951610207   14.91456917327946   10.76089411184441
P         8.22606737440123   12.84124081099907   10.99535303093932
P         8.23922123461158    8.26592197435303   11.29360394745842
P         8.65199908218924   11.17802569598450   16.84142443227486
P         9.31697552068626   18.71618303454775    4.13996600668483
P         7.81313035297112   17.09351697091099   10.16259100315217
In       10.03590189402155    3.58548900261652    5.59607451627693
In       11.12673998870218    7.59931166274455    5.11898826633799
P         9.86697463056151    7.43459433691094    3.02155903953443
P        11.80112356499704    5.26919780485812    5.71286138141687
In       11.09808466289379    1.51490816204693   11.49577469462595
In       11.00296550316949    6.07294459950941   11.01351195435095
In        9.11080046844981    3.74467666181849    9.55337962782840
P        10.07577882128487    1.49827538237762    9.26575333867187
P        10.18049630967038    5.82743922609947    8.68244294650630
P        11.93805363801358    3.85483893992335   11.64158599349889
P        12.22907520724966   -0.59163622899304   12.10860898512786
In       11.79275656083738    4.59139912349731   16.86688040900382
In        9.45911043575606    2.20680094044117   15.13987589721452
P        10.52000621730590    4.36405405876980   14.74482365594605
P        12.82497385202411    2.41495411515685   17.35173689737638
In        8.98019858867488    9.73245734187133    3.10412054340628
In       11.40681448290052   12.08080423260360    4.58439796890404
In       11.75274605997893   16.50441942860377    3.80488903458833
In        9.28296662307362   14.24281729535163    2.45024702722555
P        10.08167193372469   11.88475401970699    2.50715215095366
P        10.63036419759266   16.16775873657494    1.61745917642725
P        12.62941467166366   14.27182523827680    4.51765501984155
P        12.33251690258175    9.80350086024059    5.08319441411508
In        9.00150519529846    8.01350085011907    8.97525457233236
In       10.61839724372346   10.58267628299098   10.68450297762883
In       10.44869417033908   15.14842744312096   10.10626725472243
In        8.82711382606974   12.61474414870907    8.59577165989991
P         9.78039465019825   10.31223887998239    8.36844418900784
P         9.72871255079398   14.80104214644748    7.75327134613173
P        11.47917634760553   12.92624083132296   10.59633861450849
P        11.79077619378713    8.42819741821672   11.10777956027626
In        9.32417119907154    6.51704677022415   14.66622129081244
In       11.54266072086904    9.00387618479331   16.35756161219733
In       11.26346184924540   13.51967823915511   15.84179780208753
In        9.32928805893269   10.94910692801676   14.52876933528076
P        10.36117720459761    8.70417631483621   14.19191818662433
P        10.09377760740109   13.16586797287855   13.67432531016356
P        12.37260175629576   11.34578703600988   16.32142128399623
P        12.75659598411709    6.88453199583775   16.85540941591964
In        9.49968111259581   18.37509456842573    1.74312880416184
In       11.89607691334739   20.88260918163665    3.07897447281077
P        10.69507375147528   20.38588398511030    0.99795328340082
P        12.97957425727503   23.08989977899834    2.89857562913624
P        12.92215207293771   18.72065444991239    3.80362531521900
In        8.65570410965306   17.05250165714216    7.85368168260820
In       10.22267410141773   19.67387683426223    9.34868372490515
P         9.61170204254687   19.18151981496077    7.02133606705979
P        11.32228443394327   21.82223247730273    8.84522906576348
P        11.28447306991244   17.48956157006714    9.89336714126036
In        8.97144119320864   15.34873565276108   13.97419300684029
In       10.78417280840724   17.97670956801982   15.28377528747237
P         9.60972522150304   17.56521134890270   13.17397668992516
P        12.00590019471088   15.89244706980837   15.77688591464394
In       14.06502469901915    2.75071171558603    5.79715689253034
In       14.41282045436895    7.30852693788932    4.97974409787100
In       12.68613791394075    4.88567617660452    3.41492420469571
P        13.34466963136058    2.51731471757655    3.48789841888392
P        13.46243587519704    7.13942057551295    2.70508893806900
P        15.03369667686007    5.02918967746334    5.74557650822571
In       12.91878149099710   -0.98138511014840    9.80076041626434
In       14.49607542450255    1.63085562898049   11.37174533899590
In       14.33667157015692    6.18192018577800   10.69073658663983
In       12.61496244398579    3.59624117065783    9.27074087719790
P        13.54656353551897    1.29805860060129    9.11182078859079
P        13.34559198353421    5.83664111294313    8.44454646331948
P        15.29349665982212    3.98346440426244   11.34182448262117
P        15.71439798486532   -0.48198099095765   11.69250731536117
In       15.68493734682961   -0.05603041426717   16.68361866802119
In       15.18650449479819    4.61171650217708   16.34221104695369
In       13.31233500758683    1.99411691464886   14.99158077761997
P        14.31831975805919   -0.23712970200669   14.67586125695466
P        13.92497295940215    4.28320684624278   14.22854930639495
P        16.16378850013398    2.35552027836210   16.69297179255832
In       12.46015021436165    9.41829406729847    2.61989242991366
In       14.66832765015575   11.80156267731081    4.20885319262887
In       15.04803045082982   16.28299220249999    3.72053602451763
In       12.82557531720920   13.85747010760135    2.05790066514127
P        13.64912897092332   11.51087618454048    1.98163865976186
P        14.04976811824491   15.95529957292411    1.48247999015273
P        15.79203361289005   14.01543973414062    4.42209384495323
P        15.46718559143164    9.56724314685297    4.95107775555778
In       12.42150101754977    8.14389043737232    8.72511581410632
In       13.97395255406401   10.72500785824084   10.21528287163783
In       13.73961078973538   15.24562441931474    9.74191983612929
In       12.17793129802010   12.66124862886874    8.22744226006072
P        13.14613851171075   10.37965266152004    7.89893669877898
P        13.05069107316108   14.84727060847405    7.38383320585639
P        14.81610940489245   13.05956660991978   10.21818771241354
P        15.07898558400692    8.55836124702937   10.73324255883126
In       12.97855228250674    6.58001136505888   14.40587967155300
In       14.92397811634053    9.16820449950150   15.83215631157069
In       14.62301556354890   13.70662060813706   15.37913783791069
In       12.66067294229180   11.11971105198468   13.87569411148800
P        13.69680459850820    8.85764641772604   13.69092525826309
P        13.39089165358570   13.41972369491051   13.23745145951187
P        15.76817255270976   11.52581543532280   15.86673149619045
P        16.00478908912310    6.96580924858809   16.26456726834670
In       13.20287550063100   18.29654651161015    1.35806767354396
In       15.39565422957267   20.80159752389190    3.11417450531251
In       13.78213356209926   22.76313593271219    0.62237476887456
P        14.42673482436362   20.40234606598570    0.87151027164921
P        16.68020491559118   22.86585053761219    3.23793262699220
P        16.04294181738396   18.54678235971512    3.93985773997281
In       12.12797449036875   17.16856206202085    7.58057929300592
In       13.77860101341200   19.67182800305626    9.06120872254793
In       14.23717033116070   24.17543300832625    8.28855840848354
In       12.44331662778187   21.59259444512305    6.67479078800709
P        13.23672867269896   19.22354163086659    6.67687339408973
P        13.65505139329511   23.63192040424681    5.98696621457837
P        14.88222618745777   21.88572987323606    8.88846147915596
P        14.78162406352528   17.49220889447643    9.68404171271099
In       12.38250803082039   15.70836566128519   13.33937210769197
In       14.37972809841357   18.22531354878637   14.90997391370692
In       12.15683114938562   20.29873115668586   12.64081405273690
P        13.09774298242776   18.03793808877842   12.78542415402574
P        15.28181434744533   20.50551389268197   14.65519367712959
P        15.51704981048533   16.04654258637713   15.33603447992665
In       17.84161424591349    7.12853945859267    5.03629609828456
In       16.10964289991462    4.52665779546479    3.57304086163679
P        16.83235341995347    6.76104379712563    2.80278387825393
P        18.89140806305284    5.07622306758054    5.81612903569983
In       16.68060253317024   -0.59388073586194    9.46816756172360
In       18.86471781137309    2.38661115802629   10.82610425794487
In       17.71069688924898    6.52460199647663   10.44382559352954
In       16.03082996724450    3.64476789895361    8.99885501393344
P        17.50096832740537    1.65105617014940    8.93054907922986
P        16.60420289999502    5.95514750148371    8.29983109593154
P        19.37058335214963    4.78271359016639   11.07552453470185
In       19.14801749069386    4.97990243559531   15.20005418521113
In       16.68637953221188    2.24413608864118   14.27488562247273
P        18.44097409095732    0.55887270103270   14.22673194180308
P        17.44591157612769    4.48720997820326   13.49379556568964
In       16.14029608282738    9.13943342743863    2.59240796454806
In       17.93447072106650   11.54787116508765    4.34455635542470
In       18.51015853422272   15.75157559874904    4.12895697315693
In       16.45334691168905   13.71396499282035    2.03217045568137
P        17.15782022783511   11.33295527474426    2.00445512121330
P        17.79361604243168   15.78735669709166    1.76907289199089
P        19.12062312440981   13.58279333836975    5.23607494839627
P        18.92093546439936    9.30938928989074    4.67720222603016
In       15.79672908920384    8.30859940140169    8.37674513621799
In       17.45756793253204   11.07017791496414    9.90324763896493
In       17.56287517089919   15.17176655455624    9.62268540293152
In       15.49734675013944   12.76437738663142    7.85180565293318
P        16.58914538728250   10.54012331348129    7.64317184087626
P        16.79982192488483   14.79269110549677    7.29488872134305
P        18.63858606566784   13.15127148923620   10.60935134045361
P        18.56209671428136    8.85579779161053   10.22352785627045
In       16.27269206069031    6.65712223789211   13.82909360407495
In       18.22675684574442    9.22925650590474   15.20924211856837
In       17.82973577504064   13.84417911663375   14.82843209197924
In       15.99300934933188   11.21614502920927   13.41816647322104
P        16.93728962398309    8.93719511183057   13.10639621124947
P        16.57370023725178   13.52665745431939   12.70809453475792
P        18.87297263284372   11.62073196142936   15.10644655332354
P        19.80830692791859    7.33071169897846   14.98468411741873
In       16.97875208585424   18.12699246837629    1.67356418000998
In       19.47895275452469   19.59860216262726    4.00663023414341
P        18.54670030545708   20.01188769074250    1.81010061260550
P        19.56038021291413   17.59803125645286    5.37395896276915
In       15.63036782831415   16.99204933982574    7.40973769363683
In       18.03809553125841   19.22929857659563    9.09025109659770
In       15.89286956289919   21.19557668805345    6.75300233816951
P        17.01097872505375   18.98951226831884    6.87189292458717
P        18.71561606883592   17.25071124276893   10.39167915755928
In       15.71016349077748   15.85973011584881   12.87705099792364
In       17.73688365510051   18.35919071168080   14.30558057926041
In       16.00514628312719   20.59899862229639   12.33642845416650
P        16.40070205344248   18.15712423248972   12.21890615543469
P        18.71443141413286   16.09758710230071   14.34670188660823
In       20.95291631880159    5.18220240165483    9.26844642832636
In       21.15653021043259   13.09528895911328    3.94461945060568
In       19.97405014083217    9.08920745574654    8.23053134706971
In       20.24106719768156   12.96550940685165    8.73464062196800
P        19.70011901568856   11.22280555101328    7.05320723045590
P        20.08424644704422   15.11725208996272    7.50474893935333
In       20.83982949713456    8.31241857420788   12.98854806283906
In       21.05151474792444   11.85334902799626   13.99510174880563
P        20.04689517688849   10.50180281726435   12.22204732216527
In       20.82332739400422   16.59970402630263    9.29614488038252
In       20.95740019051603   15.95223136171502   13.43980094904979
