32
 energy: -2.075304571089 gnorm: 0.000669266029 xtb: 6.4.1 (afa7bdf)
In        1.38100160651829    0.29530018487970    8.56793652413985
In        2.91302160930816    2.94058083636306   10.69911064090321
In        3.93219981600923    7.14534223363610   10.13118288658619
In        2.28621519208925    4.62612363986665    7.27160719575792
P         2.51940543004759    2.42513403605998    8.31758405200427
P         3.34240725292385    6.73695781330709    7.81789563040019
P         4.43634426785200    4.87982885142387   10.92063802448769
P         4.18978045558196    0.93961162891396   11.32515011838332
In        2.05212157758677   -0.83658784655650   14.10255459920081
In        3.81606437870247    1.73788819071474   16.69755396664666
In        3.68222023837549    6.25738254201331   15.95871588503060
In        1.64037089859590    3.59691643187137   14.15379212790708
P         2.78597049334071    1.44962548968983   14.46299360093900
P         2.79189312637991    5.70222412711846   13.76345862182582
P         4.62535925431647    4.07254674126018   16.53667448559257
P         6.12157060294900    0.93110950485880   16.42622509182922
In        5.22596821067091    0.28789523937723    9.23352200026180
In        8.35314129712603    2.17722420362925    9.86617594347963
In        8.19996652849011    5.92173797227973   10.17739471092971
In        5.44567379188468    4.22994397279477    8.74409650556044
P         6.53542622052985    2.07231589555709    8.19899699416649
P         6.92109191583815    6.09587876914721    8.12767195419750
P         7.50055670669689    3.91791523047888   11.40585335716730
P         8.50126280901593    0.03208243492939   11.00898350489475
In        6.02263192950113   -0.27516877667917   14.32128144727767
In        8.60763777492083    2.23577709563259   14.48554696501329
In        7.47068366004724    6.23807473967336   15.44185826394235
In        5.33701781724234    3.51241608288940   14.23357715912522
P         6.64241846543659    1.73635196961720   13.02458114261337
P         6.14377778143620    5.72836008519104   13.47043363242367
P         8.14126693121119    4.00686987138847   16.11064657101971
P         9.22397195939097    0.27130080864747   15.78158639628633
