480
 energy: -35.808094289621 gnorm: 0.000139871705 xtb: 6.4.1 (afa7bdf)
P        14.51341700703032   14.66058851603663    1.29699667105150
In       13.03984968083784   12.13693080518079    8.07355648512001
P        15.22622531848194   13.24852984721510    8.09146002560907
In       13.04204701554732   11.79307716493759   12.13944434554909
P        15.42136820184206   12.13288883761214   12.49625711706362
In       12.45675416405622   11.71067321720313   16.02378059033022
P        14.05161610440170   12.71472908178777   17.54910640583958
P        15.73298504519619   13.91006801568467   19.86324918666420
In       16.54962611648207   18.21428872664280    3.59694470407504
In       16.34849385663583   16.23420270535761    0.86423243832806
P        14.34256673874584   18.46849271377416    2.55289028707953
P        18.71910075011470   19.42490763834074    3.58305650468376
P        16.74467442993985   15.74011595487673    3.29116199383384
In       16.57132318652574   16.99482306381307    8.54230128140233
In       14.99073037922384   14.49201782750812    5.93199823842149
In       12.77923874756062   17.09709745563516    6.51087526388047
P        13.61988184649725   15.99416762890442    4.50850346504694
P        14.47827855589943   18.16352968161608    7.92196270486285
P        18.30210034176649   18.76679124511826    8.85635445672776
P        16.79612569750704   16.20235085381119    6.19904251225624
In       16.87628183476375   17.63759484535304   12.38317097803914
In       15.50709492943649   14.43280773276079   11.54976987292090
In       12.86385174082542   17.00582823205146   11.34274821682133
P        13.89158030320005   15.32758748456044    9.90694111802028
P        14.51890310162159   18.44707046719886   12.47020111728243
P        18.53492749413768   18.71633617176855   13.91093763381163
P        16.72185599140539   15.41275751084127   13.48202106014185
In       15.99195488247090   18.22367764922659   16.59131327007944
In       14.15523826468359   15.03705457600775   16.64167575628746
In       12.37100757875774   17.85130926686959   15.54617978092914
P        14.24083204802030   16.51339875325621   14.64268000347603
P        13.90046116940023   19.55766835417070   16.44419616140061
P        17.78703356465113   18.81235296620914   18.21399429951890
P        15.75642525144230   16.24397415147242   18.11222078598240
In       15.01224373264388   18.31204066141655   21.82890684482952
In       13.67658372719095   14.82517816217294   20.85316887853651
P        14.69949431067841   19.09583517349648   19.51348655355461
P        16.95267198953993   18.96946497121396   23.19850282614580
P        14.69397540941326   16.02450209549970   22.72113708386447
In       15.00069607862601   20.27598774455894    1.07232728595384
In       19.93429557538682   24.51794544461577    2.85432350020939
In       18.88804321814214   21.36255746981871    2.02524358044992
In       16.18249763227016   24.09418385371309    2.46900951862665
P        16.66144089132463   22.06787256933509    1.19054004479902
P        17.80550333551565   25.16546730358982    3.92441707856229
P        21.92034631210512   25.44817701230354    4.03398546240690
P        19.85922048000344   22.36600741196671    4.08653320486641
In       15.33252457442087   19.93263402495193    6.43728265216107
In       19.65225884398813   23.71542323134403    8.01516726605661
In       18.86590884620487   20.46637563187570    7.12221980895476
In       16.27997962705452   23.12024517794153    6.75937727999714
P        17.20495149808830   21.23481133024308    5.43613863392133
P        17.38305765008301   24.66531680114534    8.32861081597131
P        21.82246614125956   24.71692311777933    8.69342488144816
P        19.90647893690116   21.50626554263573    9.13991315327380
In       14.78308433067012   20.23022604092745   10.78812389682709
In       20.08896987675905   23.41291541086797   11.76891300039189
In       18.02664735389009   20.73445892446718   12.53957202893441
In       16.31276725887739   23.24104494764661   11.18005591640061
P        17.06324812276207   21.04490556154125   10.24879620823183
P        18.00438160620986   24.66614501591819   12.28072448644774
P        21.99315216384823   24.18117768230524   13.17345936856623
P        20.17406321956734   21.58485085229680   13.48007247259253
In       14.76160871482567   21.62996942511637   15.45837511300309
In       20.73640509081696   23.69474896310707   17.01121633927498
In       18.29761208571723   20.74776467189531   16.71680247600125
In       17.43406062505345   24.19132612771733   16.11184847659874
P        16.38054196567674   22.24695757469948   17.20556746235278
P        19.60121035917466   24.33194722436641   14.88107384294988
P        22.45781275470352   24.56131037390177   18.58440636228566
P        20.30878866232310   21.44191376181835   17.97713860801957
In       14.39630561404297   21.43957212546454   20.14991692969857
In       19.99787062648912   24.46795915496176   23.27517675626564
In       17.13082270561613   21.37772242189659   22.65478219507619
In       18.59288574400549   23.54572225079847   20.35796628629220
P        16.83725879542694   21.80767917434970   20.23275954577530
P        20.84149575009562   24.41373117894070   20.94848610929546
P        22.27978661805461   24.36783863692546   24.23435088662954
P        19.43468507668506   22.06881436870228   23.21776576486269
In       22.16992282156938   27.79355758148963    3.31723848195882
P        24.03906447277048   28.66581969385295    4.59157339891293
In       17.92913371405275   26.83801245580743    7.31605625707031
In       23.75143674471833   29.61637962188583    9.41131522048398
In       21.66166201823451   26.81881673376520    7.37526883110091
P        19.80373185574097   26.24213720079979    5.83909048628721
P        23.44194255510827   27.22104965121187    9.08179884924625
In       18.59536299366690   26.98610305275485   11.75161776093355
In       24.13432528326047   29.77678019810288   14.05204560409883
In       22.19733091444433   26.59526832580874   12.63838687437443
P        20.78325142663006   27.11890353409898   10.70183749772306
P        24.07355473194867   27.34234970316791   14.07276155574153
In       19.64612618851962   26.72475139793782   15.59256679892359
In       23.59143052390765   30.59936853243014   18.18195299339201
In       22.07866928629312   27.02319824409367   18.59399411162968
P        21.85090200554422   27.55547721495569   16.22474085334453
P        24.05627336896326   28.41727353471196   19.11672256083039
In       23.15811758992355   26.00587425894987   22.61115879299480
P        24.44141035724518   25.37381118624455   20.58851339125052
P        19.87400526911551    7.71269157602059    5.47803002565248
P        19.69311940530686    7.14858288881963   10.77767516404858
P        19.22485518395725    7.38214640263491   15.90756023467181
In       20.04809177429235   11.96246200744984    1.97652411896985
In       17.39054222605941   10.25691703513272    2.96607455450501
In       16.30480700599670   13.03046709257254    0.85545790880661
P        17.07875143833881   12.70447718879902    3.17511778034864
P        18.71766919624269   13.63461453148133    0.67381261826902
P        20.84650380627008   13.20844570619152    3.99666519689910
P        19.78603117412398   10.05828275125133    3.61168564905457
In       14.52990525770997    8.93491787178544    5.29940472365840
In       19.96130025714105   11.27716659246537    7.44621698719940
In       18.16958974071548    8.43068200854148    7.12772792738422
In       16.53930877859690   11.46314790963632    6.92039593201405
P        15.77140360960934    9.12537286246121    7.39000727493705
P        18.56815352899318   12.10176402248639    5.56392518644734
P        21.43578203209647   12.13469975800080    9.24219733646549
P        19.68663579165175    9.29592856466570    8.92784105209226
In       14.68490208416465    8.31994125038953   10.86454104498341
In       20.26912028210075   11.65224321480337   12.45288779307529
In       18.20582603475943    8.49889144361018   12.24156570769747
In       16.94735899652684   11.38981057976547   10.70166882518860
P        16.93384262041558    8.95316908191221   10.12074598519405
P        18.94026109514867   12.86271311405672   10.74633104084317
P        21.52928312826785   13.25724242946337   13.88050962474711
P        19.75745550896199    9.64586737487649   13.82246037147384
In       15.33654981635253    9.06845383622695   14.93776059619536
In       20.13119321620550   12.80046980798126   16.97554443060779
In       18.44353847012323    9.53412291360078   16.83470262967099
In       16.37991681900509   12.37285085549385   16.72341363813368
P        17.14746814457331   10.70718057448300   15.04222321962686
P        18.07745638396521   13.36792634785870   18.27770373831947
P        21.56853926136248   14.52757166193305   18.09668013743646
P        20.42502525126225   10.51761536484607   17.98607425346055
In       19.63151354528690   12.12367749229871   22.49831992614849
In       18.24406337977906    8.86849108126843   20.98199623025804
In       16.27824004743023   11.91188820498141   21.24420866250175
P        18.13311502599068   11.03481787887943   19.81808658673677
P        17.41113844954713   13.03034410964502   23.13162019782150
P        20.67855419193491   13.20211161246673   20.49627004303499
P        19.62655068358520    9.66105443968632   22.83490821273208
In       19.06406520053975   15.25782992598620    2.52859748841243
In       23.78360121701911   17.96963750569951    1.95646006541355
In       22.38230639942103   14.57803506865159    2.54472423240626
In       20.20923126368723   18.23864520105109    1.97609824738365
P        21.03984044254162   16.45941658162092    3.50892058292904
P        22.11430224958486   19.78589763424764    1.61541800281419
P        25.28974052638457   18.85056289666408    3.71593289977142
P        24.44306180132883   15.60030588434335    1.58586779437188
In       18.27419469041706   14.27545500737273    6.76947131393923
In       23.05525258720448   16.76894803202885    6.16520642652569
In       21.64759833642891   14.53641303031137    8.58283551811633
In       19.62883032667977   17.21423654106195    7.41663139563984
P        19.25756786235470   15.19732476980189    8.85712140544087
P        21.48847455282849   18.65377751688543    6.59434432842191
P        24.39216184871375   17.52256766224058    8.11869389011835
P        22.95857009354877   14.27524982705497    6.49614830734993
In       18.83150548775827   14.76609763459421   12.35217272048643
In       23.92097350218997   17.60692084799182   11.74157527100718
In       22.02594610861949   14.92525045966863   12.11042666783844
In       20.76831532013125   18.02301887623152   13.06996768633471
P        20.26309082849623   16.48209444747816   11.19626478320957
P        23.06585167691511   18.69572471478189   13.83024366306687
P        25.99900704193946   18.03283503149918   10.40941726691476
P        24.20117360103925   15.24082049608669   10.92393342159838
In       17.81396584518888   15.44975901202049   16.92799510420314
In       24.55966405916495   18.23233694396172   17.12333361212716
In       22.06923813097224   15.84812279779656   16.05417281925038
In       20.06633480208665   17.98558694131094   17.67868113300752
P        19.68430147502784   16.52401808457067   15.69967084281234
P        22.36634383296292   18.77294118579817   18.17857751552721
P        25.81249748763667   19.45333915733034   15.31754380946074
P        24.34433549681308   16.54846498850342   15.28973337394022
In       17.06155444377297   15.36601661192070   22.37388699559331
In       22.78097755473863   18.08803714984014   22.18855642634594
In       20.38649303889640   15.49826143551046   21.47524578900859
In       18.50349856091210   18.35811562904673   21.36859056697151
P        18.25636791035828   16.10268881465977   20.30802811730898
P        20.53232277361352   18.99089249767161   22.64525685440929
P        24.77043817822144   19.51149649987127   22.54136385417517
P        22.26906860891851   16.60298404055322   20.26546028265473
In       21.82190041304932   20.85793024289358    3.82435387602214
In       27.27035557410070   24.48234440182999    1.91377525099329
In       25.41115162057231   21.02563594953519    2.46945516648406
In       23.54843193631665   24.38863863594308    2.48125703314079
P        23.81808621049635   22.34199701311476    3.87166600904230
P        25.29951760335254   25.97140463198988    1.74966944436317
P        28.72596181081232   25.59546300701881    3.58942740980777
P        27.27175558351993   22.46549036420279    3.35634364862690
In       21.66798832907654   19.76581849730408    8.81540797110257
In       26.37077862798941   23.29962900990434    6.77753874158345
In       24.59132064944858   19.86131417966685    7.25289130999983
In       22.83653543426770   23.19984012782126    7.01582269144188
P        23.45168399550136   21.51123391646138    8.71093932509775
P        24.49703513489839   24.60554013926905    5.79794780512352
P        27.95189447037000   24.38506761325149    8.36159503334011
P        26.01445295512401   21.10443232948090    5.62053140498121
In       22.38738732582745   20.80400047755868   12.63776271087125
In       27.03320008460014   23.74589108485465   11.60022518248589
In       25.58724437233253   20.44416256958880   10.92368964587500
In       23.85062283967379   23.74431603800191   11.56439957458493
P        24.70461179561477   21.76742346771183   12.82824775103906
P        25.43722457851812   25.33708784606183   10.46711661914520
P        29.14596736675693   23.48765615341632   12.92055774058842
P        26.94223300996742   22.12426511254888    9.71934074282439
In       22.10154450379925   20.58283401023458   16.49258626190244
In       27.49952876083355   24.70033080045684   16.21381005419682
In       25.59265296030953   21.57259527146742   16.62705314139664
In       23.98762850731558   24.59380889522180   16.60755970521478
P        23.49887051297885   22.40284486397645   15.54416636005785
P        25.94124850489720   24.94586265402781   18.16066715821741
P        29.57366032569377   24.77715523183624   17.62233497850595
P        27.15747207352735   22.58450665170157   14.95583144331577
In       20.81100577463216   21.12102640838142   21.39478107417062
In       27.35936179152184   22.69751576119440   22.28212536965621
In       24.77638995730016   20.63984140472934   20.35807940704824
In       23.73070694397072   22.76892432968208   23.00473817083252
P        22.92171049155486   22.25875674387113   20.71505589351773
P        25.75106554274035   24.12577029633148   23.51588592269800
P        29.73121364960504   23.40246093362071   22.42793514446785
P        26.95121496750546   21.80045192011148   20.01047039181928
In       25.86372021629007   27.22019725229145    3.80480700119400
In       29.32899666776844   27.43878819601426    2.06263904189652
P        27.87191182040883   28.62275425103891    3.60977074977870
In       25.08533258434748   26.50264457721666    7.34440759318587
In       28.46088104662891   26.42261168092392    7.02142559022467
In       27.59411533502952   29.83643118309319    7.65533033311661
P        26.93139208768086   27.67710668341777    8.55390873719144
P        30.36820306404596   27.28803573011613    5.72461093731182
In       25.78615993246756   26.97695118680220   12.31302369223831
In       29.10873550903531   25.98629416623626   12.56953065011269
In       28.26077217665524   29.82143980523511   12.72914609536038
P        27.70855545469005   27.68412383897995   13.72611816480524
P        29.68049942931331   26.14458645393252   10.14467044886479
In       25.59657152017959   27.34317801332361   17.49953585792298
In       29.44447376927999   27.26879842471678   17.48068666818313
In       27.55846628995969   29.96226835128929   19.22081546983243
P        27.54397955247036   28.81989259165332   17.07028807091073
P        30.67461765625038   27.43921844600432   15.36383150278244
In       26.44641914765886   25.92632316216852   21.95499351188828
In       29.84549165001816   25.75609414710628   21.70080860188516
P        28.01330710997642   25.40541903666679   20.08036054018855
In       23.47549459598068    5.64345924953557    1.98366028125342
P        21.82699680522372    6.67149989072263    3.46468420403167
P        25.64007180798037    6.54314870301808    2.77024308275189
In       23.57815294197210    5.21570603435576    7.67136325240274
In       20.18528893234271    5.74774494514430    6.93405104678060
P        21.59848342694481    5.98219437426760    8.96278295170252
P        24.79294527581071    6.22051147510939    9.61916705679845
P        24.50409502500774    5.84335090173981    5.50828757928295
In       23.51102563431948    5.58040649453768   12.75228059631995
In       19.89926290451343    5.26439733649119   12.34073774650908
P        21.44613257025247    6.37792135229651   13.91198679266626
P        25.18260650333731    6.93291195792106   14.02430243138696
P        24.02216212846432    3.66606109254794   11.33197106890536
In       24.05926579817842    5.70483913581112   17.37406814754170
In       20.98614369804051    7.28805182443493   17.62949413586589
P        22.97012142595479    7.56877297681366   16.12681643666517
P        25.64663621407456    6.81258223000133   18.91741541693308
P        25.09577248587716    4.21149485064160   15.76311720730832
In       24.52579542789119    7.02516667099694   22.57233136466365
P        23.50440074914300    8.13164294164921   20.63754709638738
P        26.40213490374978    8.59473102069313   22.89864005450994
In       21.16155721825158    8.62317821799782    2.11427490733760
In       25.90982300857474   11.92545569797442    2.76866648089720
In       24.63382992041744    8.73266759872925    3.36375993326235
In       22.70546937446873   11.51903352487792    4.12378454624618
P        23.09131318727126   10.18316973265967    2.06420373236965
P        24.60262104635385   13.10407033167995    4.52019722507998
P        28.02962644133477   12.49900846456012    1.58603745276818
P        26.16532764918629   10.23011610404987    4.61424234488574
In       21.92614569501461    8.36430616344887    8.30914540791140
In       26.60045141981004   11.50868112362722    8.31101468425186
In       25.29272616925629    8.47991012269391    8.72914778907549
In       23.28436744978405   11.34673003627013    7.75495891243127
P        23.79969218169096    9.08874168894476    6.83883157680316
P        24.60741203315086   12.38879264919854    9.58647085547882
P        27.58757477251051   12.16615591703236    6.10223683868147
P        27.46251925322256    9.47994502096718    9.46163199561900
In       21.84591593536015    8.64091072653675   12.86806845132710
In       26.87769781652769   12.01244300292364   11.86250448202856
In       25.22313998671578    8.99972103327521   12.63330678572544
In       23.54331666111766   11.86445751767435   13.41436382440961
P        23.31883136704484   10.21544105126774   11.56417916615627
P        25.79317974061068   12.77842021576227   13.96535833461894
P        28.51086915258162   13.38138211409939   10.55655684814488
P        27.41699194235817   10.02319776856825   13.24334575806055
In       22.42611658778566    9.97831539798165   16.58247544383199
In       27.07577191896690   11.76856477852435   17.00915695152996
In       25.24654894441483    9.11479716046045   18.07184709797692
In       23.44416022123490   12.90683372611006   17.73560621718338
P        23.42085655688122   10.64801713640851   18.79978418629726
P        25.79797201815288   13.42118464616867   18.38240563657857
P        28.77362376415055   12.79385676134577   15.50934248059441
P        26.20270340971708    9.70520209253186   15.87447653907801
In       21.91462558432228    9.55420209899882   21.89251269317350
In       26.71302180446997   13.83976117395947   21.95902889838588
In       25.19598525511044   10.77204298843871   22.94074659500844
In       22.78613451605402   13.21109861569553   21.86827725511134
P        22.81260207017491   11.27652105514486   23.42444307832583
P        24.51626106576643   14.88529000831669   22.51929658546553
P        28.85286685843999   13.84322196192866   20.65847346244283
P        25.54065880217131   11.96570409167913   20.77955952897874
In       25.50142526012843   15.31209218740648    3.80082323640755
In       30.71469856230205   18.46106729938278    1.43686767616591
In       28.47315521723528   14.97408815331638    1.61287339275877
In       27.50944731743925   17.96828294916849    3.04285558198365
P        27.95711781768801   15.68578935311080    3.92180005488319
P        29.44165012876813   19.48928637633719    3.33408708684996
P        32.42561793874430   18.84337170727103    3.23319980239450
P        30.66273070748185   15.99715143236922    0.94949754432583
In       24.98453836916839   14.25681589776934    7.95832168436489
In       30.13614276388015   17.81063065530841    6.83508631859118
In       28.66811717483873   14.24437256422613    6.95578998584238
In       26.57749010410030   17.03395688826004    7.00908240405447
P        27.16999051757822   15.23289051184508    8.65137766937440
P        28.23685654012166   18.30477781483656    8.37616290870549
P        31.49152483186929   19.04311548543391    8.53429923069119
P        30.76691752650267   15.44365478968123    6.40791632151676
In       25.83700778870638   14.96045531827322   12.76802037493746
In       30.37607997547150   19.14393706277798   12.83607512522884
In       29.00472989599891   15.72627458308719   11.24607186071944
In       27.29220060436969   18.19862931816964   12.53313119115280
P        27.99345237742843   15.98982716695647   13.48925124663946
P        28.25223022348032   20.50022159415574   12.74179162752675
P        32.69998022508215   19.17034938745452   13.73059851151025
P        30.76343592164719   17.48496016474695   11.01375191763740
In       25.87954226649060   14.94769155325744   16.41887918565935
In       30.62107062275084   18.18362848826055   17.65926672453032
In       29.33501758265213   14.81798490068095   16.89926882510947
In       27.64036474016629   17.94124716659746   16.07437464820533
P        27.50121962491040   16.19938777299888   17.84495097803823
P        28.50558150455513   19.49906292771987   17.80218008204529
P        32.79163618467798   19.15194944405536   18.39754683825457
P        30.85859241923067   16.51450955908009   15.84183237289544
In       24.66479378331159   15.94738726737248   20.29045202251512
In       30.63277417491925   18.49614868403724   23.37524638750249
In       29.15427285475294   16.28124760936237   20.98407349336238
In       26.49200182975902   17.77909170380310   22.94618158593808
P        26.84878145722107   17.10526589108537   20.59013009248631
P        28.32104159791113   19.40248766951521   23.37612407647055
P        32.40131269177246   19.99692406802700   24.25300892076314
P        31.35310139455456   17.43236612658246   21.23994948655557
In       28.89353896954688   21.37994100189973    1.81391586985250
In       34.01164140582809   24.68731032246841    2.26565712050884
In       32.62665621446597   21.21458175284596    2.47545643309020
In       30.65973295325781   24.01833846755002    3.58298565563937
P        30.93909470242775   22.73386250545642    1.48940496161671
P        32.38998159444405   25.76310520357355    3.71936805357592
P        34.26746193913002   22.66259463281950    3.62492317505901
In       28.04218827789540   20.33048022925424    6.90826997997342
In       33.60528493603369   23.44904964616471    7.10721054891752
In       31.93843692878142   20.57675711805872    6.61474516462811
In       29.97714841848560   23.36253345745072    7.27827504326208
P        29.83972067825558   21.49718312023007    5.61145834969032
P        31.82206642111658   24.62270796696607    8.39154253661033
P        35.74779377579901   24.46192518000624    6.55407591462769
P        33.63059218588681   21.26829725760963    8.33702688659402
In       29.13446796673128   21.21876144806343   10.52754281439241
In       34.62289282709105   25.30775685462844   12.11364437482119
In       32.89889546204473   21.31319918959225   12.43857958712776
In       31.30268061680562   23.97829697189678   11.70835343836171
P        31.54148743181742   21.85071649694941   10.40894744180988
P        32.31086090550929   26.07200482841640   12.68921966338355
P        35.15261982351706   25.01917315138277    9.77441599325932
P        34.60031879983515   23.02234231298259   13.07839174751006
In       28.90401887124272   21.11176135868234   15.95613734511286
In       34.67382363437397   23.91046852023086   17.03132435326261
In       33.04515562936138   20.78497342325052   16.51176840729974
In       31.01967900763389   24.14570384197119   15.66094178565331
P        30.96835368573333   22.02944831464935   16.94687525929042
P        33.38003234245215   24.83762127824395   15.10787815608275
P        36.80635428524426   24.84272965453346   16.33887089743679
P        35.15529626173125   21.53366148873206   17.59050040917086
In       28.29467058272525   19.90833990358312   20.96079222106050
In       33.89836888972491   24.07149808047503   20.86519142056764
In       32.22419322307029   21.29084488749391   22.14025683849388
In       30.20537002604927   22.74203601086819   20.08209821593271
P        30.69440185686877   20.31022019049816   20.41440735852781
P        31.92307162184155   24.42073774097723   19.45751162751160
P        33.69999762389018   21.70127239387624   20.14132514051725
In       32.20250757789794   26.76324460389889    7.23134091218236
In       31.47519540762845   27.61706863455552   10.95844022467432
In       32.78008814367772   26.84914356801320   16.46662160133473
In       26.73652079303073    7.28586824722983    0.69579807354779
P        27.34386348867471    9.62724822388636    1.10609433483542
In       28.81392746679062    5.89058310145914    5.20327243332755
In       26.79336141388170    5.39259689938204    8.37363185273973
P        28.50666087627330    4.02825987826253    9.42562490204827
P        27.14747093825870    7.08951503396239    6.59155766526194
P        30.89594696140070    7.10894106645278    5.47882338053311
In       31.15626998347871    6.03187332412964   11.23737484193599
In       26.90032343421291    6.03505928119834   12.41856034050827
P        27.69927234395833    3.93184869629781   13.36420931843811
P        28.84803232199985    6.87004727562863   11.10028586599432
P        32.53278774883785    7.98728178547254   10.83602983818830
In       30.64195364863929    6.03768303563554   15.32384677136390
In       27.49752190513781    5.92148638105034   17.49110781698562
P        29.46599547608734    5.49807556941398   18.86156197116938
P        28.24762777443022    6.62672246304217   15.20626136270163
P        31.85454204413920    8.14754324404192   15.31143681356300
In       28.30382280363232    7.22215403657977   22.13569519689701
P        28.42709186391583    8.30899541864989   19.94677319114626
In       28.15166869909218    9.30910491385576    3.40855944257758
In       32.71132655127140   12.63558523421502    2.02571080542984
In       30.61538334940727   10.53911595651388    0.44328617797228
In       29.67183353884202   12.25929010934209    3.43851153045971
P        30.49113306939275    9.98065166872448    2.83955039744833
P        31.74351732133947   13.49232056592262    4.15027607826971
P        34.45363759166873   14.09788406109412    1.08452515130102
P        30.78772612881119   13.00182606981306    0.49268910632829
In       28.93722070343452    8.10581110355897    8.00980393182725
In       32.93897149137260   12.12297816700378    7.47355489391843
In       32.25258074950006    8.79205014586460    6.63723413291355
In       29.65399698111668   11.19051135367281    7.19961063849914
P        30.91437673095394    9.53273060831568    8.59526930420937
P        30.90518146433839   12.62389429791718    8.83806866600550
P        33.87448048832602   14.17213748684304    6.44393427429997
P        32.12315523158987   10.95536321203316    5.43200443503522
In       29.42218710739670    9.01099880914749   12.21400449785891
In       32.84770882818620   13.14945224216869   13.74372487114563
In       33.02226086009562    9.97815405615083   12.19068417973755
In       30.14715378452745   12.42657294639233   12.17985412196380
P        30.97145916988480   10.48393882560822   13.49563247581809
P        30.58814634197269   14.30797454334360   13.78560420100730
P        33.57558259337523   13.48490571399154   11.39652297493049
P        34.30573681171019   11.17005123186882   13.91576631475040
In       28.54113753997407    8.89224906676360   16.23348077117265
In       34.20122180810611   12.39421853684401   17.59535988611850
In       31.81001670321539    8.73549050094656   17.69530918883412
In       30.83485657674521   11.94368995849709   16.67316833101471
P        29.76422182435249   10.13543324920510   18.02459637988228
P        32.01733004112628   13.30676125884685   18.42565019635295
P        35.49373804665237   13.73074582257844   15.98580436715409
P        33.92002695108352    9.96894345444118   17.79327601902523
In       27.61081486123519   10.56161912026144   20.59468778787277
In       33.09072419445811   12.21023362730831   21.88326362819416
In       30.64075028038253    9.63960279704697   22.06598213643306
In       29.74258399727521   12.78083582842141   22.72333253214801
P        28.49519707315989   10.62255457495966   22.90616718167667
P        31.92501393014003   13.33663201737511   23.74439083549917
P        34.18923125053752   14.01205862398758   20.57538563635441
P        31.39280349554431   11.24894762747060   20.34985268693974
In       31.54204825875768   15.78692354753053    3.24506150443384
In       35.68843339900537   14.54180021372617    3.12441035121428
In       34.10342780450322   17.56951143091991    1.90360431895092
P        33.93480975062980   16.08580795772622    3.90742796038910
P        35.97509281865636   19.07153311003179    2.41964920307289
In       31.46485837477280   15.04672142205270    8.73765930055055
In       36.87979122795592   17.47201957002544    5.74600384339879
In       35.45444352345137   14.83014920485675    8.19994097610562
In       33.58535307410806   17.88517863841004    7.78182402675495
P        33.64502997949359   15.99912680582117    9.40936627069129
P        34.64433586592651   18.51674649073380    5.60316726231929
P        36.91979377762417   16.78614773929999    8.06521537618007
In       31.97275282590853   16.06897347335979   12.67814733870332
In       37.57170026927174   18.50377699318687   11.48906020508304
In       35.60124413961096   14.50034571641248   12.36920378953027
In       34.06127911950912   18.20088403912570   11.86063093002800
P        34.32605286095575   16.30032108807390   13.49539335435342
P        35.60733831756699   19.60524152601980   10.49951776584668
P        37.33527788179536   16.10219658135470   11.71285702915330
In       32.67061039560576   15.30439455543631   17.06214673029229
In       37.72197233053522   18.09027206520049   15.46394250385204
In       36.46265082304421   15.33994237276571   17.57202227521242
In       34.61189522957606   18.11773111330828   17.01574223324421
P        34.38986641167426   16.21778531973235   18.61851914170703
P        35.45102017763816   18.84213821169772   14.76445674648464
P        37.74093981950909   17.43069604552097   17.80840013701523
In       32.25110619200278   15.49551150040251   22.55025625253835
In       35.80213088315051   14.88558072900420   22.19828255795714
In       34.22991352391021   18.46481027663198   23.60660496855256
P        34.33369413385864   16.00454339086686   23.80587017332768
P        33.80248239129194   18.75798843737080   21.18891038731362
In       36.28141321087438   21.37140602118852    3.10210427046234
In       35.43446426200011   20.57942806498338    6.76538477781283
P        37.68779738175355   20.79598433478332    7.64806519283765
In       35.93990345046809   21.92710899145882   11.28909414966073
P        38.21157578479352   22.59330890676536   11.81477376270104
In       36.32251708332944   21.10213445403152   15.44177188924563
P        38.66186711293474   21.44395983801066   15.99461101263169
In       35.66599888586268   20.34043104234706   20.86450674364368
