418
 energy: -31.014435213979 gnorm: 0.000664461234 xtb: 6.4.1 (afa7bdf)
In        7.29874803617497    4.07231021047097   10.01724546070008
In        6.85781233131622    5.86821230008184   15.60189543409380
P         7.76891675565446    3.62532948406536   15.41200604807577
P         8.56270979243051   13.02867907041494    4.90297007197605
In        7.84815518701566    8.08021313992565   10.01947881728529
In        7.70038360932516   12.60109441657875   10.20073660898598
P         6.94270003736038    8.20937015777834    7.77683205868172
P         6.59416894754161   12.69246634659194    8.05194903054159
P         8.72326280956774   10.35171929100193   10.57792162561235
P         8.95212263723485    5.85221097959896   10.29694878766545
In        7.38302461504483   10.05787866381221   15.82646001917048
In        7.48032627764478   14.57105086299045   16.06504186944600
In        5.62667712309055   12.62176795790759   13.43200423205441
P         6.61973580542478   10.39741785267152   13.52130433406559
P         6.81021129226698   14.77324536221957   13.68508450348318
P         8.37451568499589   12.26880462508292   16.40564836372694
P         8.36350864392718    7.77461926232607   16.04760708537991
In        7.56930065503897   12.05164665923302   21.65305028495116
In        7.75493606459685   16.48349949359377   21.96784962790097
In        5.65454090838970   14.53948058748371   19.40067874309123
P         6.65411672211056   12.31606430372531   19.38967738872686
P         6.90437730705171   16.65244475399065   19.64106751820545
P         8.72980173015203   14.19496896927850   22.18933614895382
P         8.46928013770011    9.77679664658057   21.97620567989562
P         8.47402404013456   17.50196305246766    5.23805281460825
In        7.53850355005121   17.14470606947878   10.47466691494193
In        7.34262814769153   21.64116433538952   10.90057174913730
P         6.41897164934524   17.14938512050130    8.33027423799409
P         8.37051221598532   19.40312785636216   11.14464131700665
P         8.50894542996967   14.87453441212602   10.86620024582478
In        5.63968999214775   16.94798830812435   13.80101977701287
In        7.47093845273705   19.07115948951390   16.39914252438524
In        7.33270039299522   23.55189785832673   16.80734497883762
In        5.49275070857556   21.25136960015598   14.20567984123357
P         6.75863214192082   19.13896115175864   14.02328491315383
P         6.48047603958333   23.45823375932850   14.50829747344653
P         8.36085161233897   21.30087089629443   17.07114081113376
P         8.41424040866789   16.78719464220885   16.73139953303134
In        5.71729431034214   18.81296847179976   19.77170373403473
In        7.81873200520316   20.95931996954942   22.28853377153857
In        7.67045945432116   25.26423850420142   22.61734192202807
P         6.79744860087001   20.98041473734951   20.05669931971649
P         6.64777754046384   25.40436449808133   20.42025701467528
P         8.94079735850872   23.12667108179767   22.85249967053943
P         8.81718584028978   18.67885941909211   22.51749338537303
P         8.12865469991476   23.86964332630658   11.53441238501038
P         8.17740663561901   25.79334968619505   17.38554120362953
P         8.63669192418004   27.42878021629832   23.27962085732905
In       11.27497007316128    6.50434783105322    4.38403716347766
In       10.05338022406428    0.16075877197237    9.61909773252362
In       11.45081844602674    3.45292828605052    9.88115066208582
P        10.66934630524608    3.68853772970526    7.57539987027831
P        12.23741060843279    1.09694382843777   10.18533213272955
In       10.49838535997571    0.87539549736340   15.71474895860709
In       10.65146396390219    5.38597490708335   15.54946427032840
In        9.08685079631288    3.27551324575061   13.37973994592973
P        10.00320960076732    0.99156827958750   13.33536713426984
P        10.01491187969465    5.58021469452184   13.16130551320022
P        11.56572860411357    3.09021237090763   15.81707885226804
In       10.89946331476173    7.30918342677747   21.29785928621817
In        8.42634517645468    5.54501807251791   19.26513571010122
P         9.94604122987969    7.44180118152772   19.00081934394877
P        11.53220095261584    4.93749961522558   21.38558541628304
In       11.63296699489867   10.77701611872925    4.79741936968588
In       11.62236969944373   15.36770290736697    4.97825597965988
P        10.76701771509019   15.45845965336213    2.71184554232220
P        12.45282717971740   13.04519768631190    5.34600649178094
P        12.55733779047165    8.49943841495660    4.95347930153039
In        9.78440371663350    5.95652107892978    7.95617942938416
In       11.28938344038665    8.06883214365279   10.16805108075705
In       11.05016059471401   12.66328157378226   10.45841764334371
In        9.64338968771676   10.43508001697430    8.27165403403061
P        10.73430946370817    8.25136420553290    7.76159239547861
P        10.38725578037116   12.80496719048622    8.07998092876551
P        11.99820714261975   10.38012892458186   10.75720687821309
P        12.22245239982490    5.76785292747578   10.34071576122767
In        9.11733798660944    7.85055291401103   13.68226982083242
In       10.78875303828790    9.97001029864781   15.84302778737945
In       10.85276452193259   14.54446376357058   16.15023953156406
In        9.20900360195676   12.39210999135253   14.07593781399857
P        10.07519545463801   10.13791188165129   13.47481536295474
P        10.08773443137217   14.70329116598297   13.79462714075224
P        11.69713150461227   12.21597543631263   16.41134988704203
P        11.59524142983129    7.62668659401886   16.09922686113367
In        9.08143856968410    9.70674775239761   19.59867724897952
In       11.01871633168498   11.84690054603102   21.51021699629879
In       11.14091649609014   16.41466128637953   21.80260257823470
In        9.28904142748153   14.28138049206565   19.77541600863820
P        10.05355605530910   11.97220928171795   19.23324816681172
P        10.20748743342981   16.58013799335317   19.51195098431859
P        11.96169460993370   14.08004813813665   22.08786307920292
P        11.88492808988278    9.53326693993148   21.78742624688333
In       11.55463646231676    9.35055062900478   27.01396979571419
In       11.73489893970659   13.79148543564174   27.30768250112880
In        9.36963107105198   11.83819608689173   25.20422662895844
P        10.33401898088498    9.62214156075462   24.91278350338769
P        10.54681656910984   14.00125125971156   25.13339054008818
P        12.69559002045470   11.49968294059053   27.42991892980677
In       11.45537658669739   19.96114206766662    5.29684479332238
In       11.21479202980076   24.41591659863731    5.74308872643306
P        10.58004526903765   20.12797996636677    3.04564849287994
P        12.30598882527666   22.21469814343437    5.93386759194635
P        12.36280607855968   17.65979728671349    5.62568452275458
In        9.41435159269850   15.04545547927443    8.55684366837743
In       10.87598937364764   17.27223947053679   10.77884984944767
In       10.75507142174875   21.86049698901911   11.18745425752057
In        9.31280195220011   19.68329002121094    8.85922335198823
P        10.20479830054056   17.40252332141788    8.40347761530379
P        10.23261823412204   22.00421979030470    8.77100025207547
P        11.69344414989633   19.55637406551935   11.35397919525780
P        11.79797457333985   14.96965240661024   11.02887255248101
In        9.22194804453403   16.95746150309319   14.39298076861201
In       10.83666011430216   19.14854107099898   16.46868298385013
In       10.80245090442509   23.75408019373145   16.82902670489438
In        9.15341618469973   21.53696496364373   14.73701957796647
P        10.03902599597979   19.29211947251078   14.12259654164490
P         9.93589631259021   23.88792678036139   14.51462373902065
P        11.67856582095471   21.42576018320783   17.03529491972913
P        11.69721626335751   16.82043790701432   16.71096943594569
In        9.35075241351064   18.83960230062211   20.10328850084448
In       11.23713059800407   20.99870839300039   22.13223640263381
In       11.21938378743295   25.53949359946570   22.47648461402580
In        9.35949246353483   23.38507756811417   20.41528290507385
P        10.26697107257323   21.13868363604930   19.85446593197322
P        10.18821639892493   25.72375481711350   20.23202983537854
P        12.18802597352501   23.24259085563065   22.66843184734067
P        12.04671588290620   18.65742393469012   22.39996449672387
In        9.48414415487568   16.19877184586673   25.49780755364751
In       11.76159378958172   18.27219399597079   27.64185682050388
In        9.44338319731129   20.52660796593169   25.88457564378813
P        10.59887513517028   18.40050332280559   25.44474412173448
P         8.67929523181855   22.80328212105145   25.99565326554108
P        12.61289632013634   20.54818125470582   28.02307461085455
P        12.78640830093994   16.00517939878659   27.75853259713998
P        12.01275983638863   26.64884216330977    6.15417358084450
In        9.15199959304902   24.18369680701565    9.32056468571551
In       10.77713542805297   26.47974062232113   11.48227273225536
P         9.96225043008973   26.50362500784064    9.17482200703869
P        11.60007929294398   28.75023575818064   11.96639009947087
P        11.60207083383604   24.14368885526961   11.72418847648861
In        9.01199535602444   26.12025608567881   15.10088689853182
In       10.73487899195801   28.33483706210183   17.14273161553850
P         9.93902410898484   28.39089644569808   14.82043718813794
P        11.60682314324486   30.55917715622806   17.73523432889386
P        11.64083493385949   26.03075661526174   17.39574273030629
In        9.23094244961197   27.90458220369451   20.94630077571806
In       11.20176879218658   30.11416498163019   22.89897439471531
P        10.15229011523366   30.17358897395746   20.69194828468074
P        12.07376962370061   27.81059259349822   23.02481974078115
In       16.78487025921217    6.72174543976101    4.06547487670923
In       15.02175322229851   -1.07049864990232   10.54668501277771
In       14.89709112671246    3.76833038203275   10.19312192009286
In       13.55453891111092    1.31047370007857    8.08660398786632
P        14.64121853489469   -0.89702570157133    8.15301470512841
P        14.35758539679956    3.65268827106927    7.77398885852853
P        15.37419150905063    1.36889139143484   10.76767013395195
In       14.39474102908807    0.59966654480284   15.51091944768554
In       13.99480216765541    5.35609709393479   15.59649107614911
In       12.44991569028549    3.16740485820050   13.50176344602123
P        13.43854420012283    0.91277677355001   13.29176187027375
P        13.27180534417094    5.50621551000335   13.23070554933203
P        14.78231261584489    3.01149895283618   15.83417013957492
In       14.12344475605159    2.36476744340331   20.86973811856352
In       14.26774550017857    7.10072654339053   21.05950705953211
In       12.33104628749285    4.99205312849487   19.07463504555169
P        13.16448692369763    2.70812969652322   18.65659572663026
P        13.25376591780186    7.29067624839316   18.81251091431602
P        14.83173030396730    4.68688990568922   21.29324659247780
P        13.35277471828205    4.55267955589271   24.51021306054173
In       13.76623255324124    8.75748961775922    2.81345565696068
In       14.97500679839533   10.91806954550444    5.20015200067627
In       15.16567135304865   15.70378538020057    5.38940488056270
In       13.58356754389293   13.23065215179498    3.13822873494736
P        14.70026791058613   11.04222525948806    2.73284821397371
P        14.41816309990532   15.57472986720083    3.03300662664186
P        15.71503703353092   13.27056937493198    5.62308291023719
P        16.08646581570637    8.71039863470005    5.22542203722532
In       13.18956858611951    5.84655062381476    8.05433787779087
In       14.85846237269982    7.97144223264301   10.31942155425931
In       14.38404164354660   12.71386632116757   10.61910142369521
In       13.01548607642640   10.49451032723315    8.49946570562175
P        13.94393717419456    8.22529286287846    8.02646473334079
P        13.68990937336557   12.88515271848326    8.24479413898067
P        15.27029497370357   10.38704361287118   10.85093936906887
P        16.23627062929045    5.87474387834538   10.49256418551910
In       12.48542579452190    7.80158321462923   13.79013092933484
In       14.16735910206134    9.94391949705593   15.88871048148922
In       14.20455501106546   14.52382076497443   16.16913545943971
In       12.55496810300680   12.37823764448142   14.09143388990324
P        13.40348309641174   10.10462743967229   13.53942250790280
P        13.38219989585285   14.71280771259654   13.84060613400214
P        15.05700776431909   12.19939802355237   16.42445122845740
P        14.94160574927390    7.59420207297345   16.13459881147135
In       12.52298102615952    9.59935544792663   19.39521838940689
In       14.40177507100142   11.69074338572907   21.38516567542247
In       14.46239730486886   16.34959835848137   21.70598337556426
In       12.64847712206833   14.19814362160854   19.70642447112304
P        13.42664626305283   11.90675806081053   19.12098856784754
P        13.48739757969669   16.53090216338155   19.43743234223420
P        15.21281974026588   13.98308210093671   21.95424942398251
P        15.16358529962661    9.33981003613058   21.69966529728806
In       13.07882506689465    6.93307867747897   24.71217640643062
In       15.11790291317630    9.27064199130000   26.76490471615182
In       15.12169374482797   13.75707957192719   26.92401393606296
In       13.07305140122351   11.54559949932142   24.98190985428391
P        13.94272878630464    9.24424995506725   24.57855876984894
P        13.92020710286254   13.88272775900092   24.75406176070678
P        16.14600299220808   11.50277139891348   27.06698563979287
P        16.19531344229951    7.13940577268820   27.34653485246413
In       13.32501331299488   17.78965631022425    3.33368709436943
In       14.88703996042118   19.78972583809222    5.66062968334332
In       14.96895405635291   24.55244104995936    5.95582094425816
In       13.42771001338739   22.33970762933354    3.71785939366685
P        14.31769479551653   20.06564687387532    3.26690310184199
P        14.37835892246200   24.59873447651539    3.58272669339095
P        15.56249454415834   22.14799284373472    6.13764802736768
P        16.46399177910099   17.83589445623010    5.70865573598588
In       12.74389289414096   15.13646618099415    8.74217363741564
In       14.16825580380767   17.35186348685182   10.91312523916008
In       14.18881265105909   22.00201435319770   11.21380781281879
In       12.65115040010790   19.78452119247483    9.07842031138098
P        13.49072575758684   17.50266718523006    8.53383048829833
P        13.50390600182406   22.11579606526637    8.83279450053156
P        14.98250858798692   19.64496837813092   11.44520842174525
P        15.08784170985570   15.04705370236717   11.15606369812732
In       12.52358713721784   16.98681036795160   14.38049864336263
In       14.15110205271140   19.16751143725588   16.46691967152100
In       14.22488159449584   23.80995159864824   16.76615370270908
In       12.48460653777736   21.63133038586195   14.70206779046657
P        13.29901557039330   19.34344363216288   14.14608987597130
P        13.30513048030164   23.96993987404100   14.47168660579911
P        15.00074996152102   21.45030604048535   16.99784148660225
P        14.97631879757250   16.82553518894073   16.72328105120857
In       12.72242645086385   18.82903330378089   20.01809457823708
In       14.55503055409369   20.99331866719485   21.97451923566811
In       14.61650203603500   25.62627496346804   22.37283657971075
In       12.73716832270974   23.46237087631584   20.26117720273635
P        13.54038831093964   21.16514038581856   19.72420171944325
P        13.58679301539871   25.79976373815730   20.12360557631897
P        15.40739202721451   23.26849975979057   22.53596032981118
P        15.31066360782876   18.63363274231847   22.24182993488523
In       13.11773213335337   16.17961872196376   25.30951838915479
In       15.11115439464554   18.37429303385314   27.22573138742262
In       15.49659151450364   23.05263069953961   27.40588046669647
In       13.18934354944681   20.84492927780595   25.66704832248866
P        13.91010433628546   18.53369435854349   25.05741684638943
P        14.10823040121419   23.14724313510274   25.36515378187779
P        16.02963584066284   20.65969586623942   27.50968268863050
P        15.99692786932284   16.05428790707609   27.28022809095281
P        16.43562831974615   26.46827149915343    6.30302276404544
In       12.58276026465383   24.35083589269781    9.45983623031499
In       14.24345363076815   26.68251762272708   11.54855498572775
In       12.55315132716783   28.99198257027054    9.73472156041712
P        13.33607734221704   26.70598029879981    9.24098840016700
P        15.18808187130999   28.90161864163948   11.97058562844224
P        14.97453567474565   24.30284042538874   11.77821427852008
In       12.48080454827379   26.23897562989739   15.07841403723575
In       14.22868008028653   28.42319028267237   17.16673688112918
In       12.49505512815974   30.89420075811889   15.48739746219428
P        13.21926075585886   28.60661654936707   14.91524342139945
P        15.09936727910554   30.67678064858480   17.65819223331842
P        15.06625162020124   26.08098087305586   17.34404408465889
In       12.69228580059779   28.06621934969998   20.64470144769286
In       14.75571803648802   30.16752398043685   22.76567060130920
In       12.89738465321859   32.72685591768056   20.49223087197085
P        13.59465970155125   30.38834522325104   20.58246367005087
P        15.82257091439716   32.38162204196371   22.90172515309021
P        15.62084943703372   27.84004214333288   22.90842110767608
In       12.38551720271320   24.69888372582160   26.14534769453407
In       19.71796617125592    3.97125634548588    9.11902188236221
In       16.90293850206658    1.49901262695761    8.81961967274252
P        17.43161734207272    3.82001070192873    8.18225525083543
P        20.02779468434791    2.67818428142774   11.15001339706949
In       18.58564697867993    1.58558809552811   15.42786717696239
In       17.31625704415054    5.36730688473946   15.73969168993118
In       15.79453646438305    3.28147082019555   13.58437603079666
P        17.32169375785269    1.37947649143676   13.37166171004569
P        16.74972530074682    5.55795113879057   13.33203348600686
P        18.98782578610977    3.72688110926238   16.56746655279887
In       18.11726567291579    6.89590631768495   20.74768737446034
In       15.79844575538445    4.88909041968038   19.01149465474118
P        17.09551177272833    2.82148981290865   18.87401689864978
P        16.78502674917080    7.17083813665522   18.68875033564258
P        16.46895933333213    6.03776446571340   23.63841497133347
In       20.03671971490101   11.14626509780752    4.43604513013752
In       18.61795980560344   15.31593074254464    5.53320605279580
In       16.90635639350836   13.31554100914257    3.44342188842319
P        17.80895571307497   11.02539225728195    3.47643033501917
P        17.86183046713187   15.59142154015137    3.19295635180560
P        19.66424438198017   13.10414942555343    5.81929945037533
In       16.50911261330825    6.12145802191344    8.03282988228411
In       18.36590817153844    8.23993176954625   10.22699544769402
In       17.64027718208046   12.82953228986618   10.78679175877529
In       16.32420104321445   10.64013377171015    8.62547907958716
P        17.34746198064727    8.46876153312209    7.98588652367128
P        16.93745939157917   13.04197968360082    8.42171505940559
P        18.65926176603497   10.58098380624447   11.00021526266517
P        19.92077061781842    6.35620846294558    9.78915555147136
In       15.89332701592357    7.82361176076502   13.85594116994887
In       17.67040253461202    9.92017240311377   15.82913599173761
In       17.61873673717316   14.56012986843332   16.17307082446129
In       15.94278636544062   12.36977716292702   14.12225184324855
P        16.80522257165450   10.11326046679233   13.52454825133825
P        16.72553105566258   14.72019834766017   13.87745687494618
P        18.40346519170237   12.21505118662581   16.42955287587660
P        18.43855998617864    7.56456903862495   15.94233411947613
In       15.97373006006724    9.43196323487773   19.35462310448204
In       17.81491756806257   11.59184440174966   21.26186405729270
In       17.85382225713553   16.27780575847560   21.55652416163336
In       15.98422633117293   14.10469977246465   19.60284411089150
P        16.74185884314070   11.79382453889373   19.03987976034353
P        16.78842798145394   16.45290383380789   19.33041802526444
P        18.57961571498702   13.91304898290823   21.70890546263346
P        18.60488183767345    9.24577562930439   21.35358579268165
In       17.65179247537952    7.23291235611549   25.38855335518101
In       19.09726519919398   13.95803251806864   26.24763095585967
In       16.49998216576973   11.63097597554778   24.62415107268873
P        17.60623619803345    9.44629851036416   24.35142443865542
P        17.43061793896445   13.94669743161573   24.47532208983555
In       16.79215085801255   17.83047130480932    3.24613056962381
In       19.54586125049315   19.28225740730728    4.24632591979400
In       19.72470594997719   22.26913173101015    6.44666949828713
In       16.79770282954365   22.15270866730945    3.98579231283483
P        17.66701699368943   20.12721088717246    2.86789532068321
P        18.37932678473017   20.26625039265612    6.18481193717140
P        20.17325260045021   17.20646490178195    5.37682409758786
In       16.08441863540261   15.33119437178884    8.90562385408401
In       17.51841744439452   17.40958688582037   11.04126138990830
In       17.49777400656671   22.09701087047347   11.41332400534550
In       16.01580253866418   19.81838000420663    9.19822274910114
P        17.06091695139196   17.62091977882535    8.60818567817400
P        16.80836713888424   22.16926525425476    9.03801395070677
P        18.16423681592096   19.71389856531049   11.71719028515315
P        18.42128954742881   15.11066904281061   11.33073572995247
In       15.82881532475967   16.97423116699968   14.40692998221664
In       17.42380404117037   19.16043095205429   16.49630855999025
In       17.72242293031153   23.63947191927894   16.61266617280825
In       15.82988094351225   21.66362330916599   14.67869685943153
P        16.55092532465149   19.33984597032594   14.18904315466400
P        16.66991734895261   23.98787708416502   14.39845000416181
P        18.58105234089007   21.31669355719995   16.85452733625728
P        18.35274916214420   16.86673161051721   16.70991407311164
In       16.07819525259615   18.77498683640621   19.89269026162314
In       18.01158532859051   20.91067880172274   21.72075181025128
In       18.01484245945633   25.52567774685388   22.10925916245551
In       16.14181686292223   23.40213229690109   20.17212610399684
P        16.87876098344497   21.11143796665556   19.53203066812604
P        16.91044707449300   25.75074084856177   19.89969590771498
P        18.88617860412527   23.19702006289463   22.09233055191763
P        18.73912366143456   18.55601441943086   21.96322486753522
In       16.40772366024403   16.20082775518805   24.84678736907841
In       19.00908055544624   18.31592132528629   26.64793788215290
In       16.47566603173714   20.71500061185824   25.07757211358562
P        17.48679520690137   18.45346549329005   24.75879890216563
P        17.71613176237254   22.85175309661955   24.90569223665896
In       16.04137836187962   24.48254216793702    9.54666614442527
In       17.84359453116262   26.64658127481281   11.74212383085763
P        17.17296118084525   26.65710096729838    9.40541246452886
P        18.54323766744904   24.28322033925008   11.97121104657807
In       15.93071469162054   26.27712664759119   15.03580708400981
In       17.74900799535200   28.36004355525257   17.04526816920596
In       16.00118722186210   30.94168217089929   15.40998485452887
P        16.66977622706552   28.63863267998211   14.84707869976012
P        18.38410448831062   25.96981088608096   17.17102358364539
In       16.13373400457846   28.03570855030601   20.49914808752485
In       18.16205780659737   30.02278878950593   22.45967075479814
In       16.71182327836959   32.78968505159814   20.68000495498653
P        16.95799948469209   30.36833070524575   20.32948292671286
P        19.09323311450223   27.74300449384802   22.37319929255514
In       19.43718024443317   22.61104405427215   26.56725350138626
In       20.48489198673519    4.72266494083794   14.88735435080343
P        19.97860737747725    5.63928595477271   12.67965255755100
P        20.87606322529323    7.56650626509347   18.62689172302186
In       20.10421357520682    6.98634057892962    7.40583890524550
In       22.20194547705618    9.21038949345793   10.49030786962772
In       21.60326356989342   13.76486046699043   11.03522223958038
In       19.75536449839275   11.10344886649548    8.83212190960535
P        21.07052640294312    9.06411454760347    8.31856302974962
P        20.82206040083539   13.34675087682326    8.72403122348161
P        22.23021002723577   11.42997364066177   11.47551109863573
In       19.48156903381336    7.84533659132490   13.71552073904781
In       21.66834199180482   10.30000105313013   15.72196585189795
In       21.27854980475363   15.00056256300114   16.18079071572802
In       19.36939806532514   12.52178020501110   14.16579313106183
P        20.24781505523812   10.22865464106570   13.71273497569882
P        20.12401091880201   14.89474586203522   13.98777057621125
P        22.01074170316138   12.64855593484022   16.26967378283300
In       19.36193134093095    9.43739502643162   18.99523491167896
In       21.75335591183130   11.58184134274907   20.91548755370764
In       21.74176033202833   15.99845070394293   21.42126964930330
In       19.28592052499598   14.04050670284924   19.33720432222931
P        20.25396299416515   11.77072959521097   19.01143941090247
P        20.35184579254369   16.29351395374324   19.44708887268247
In       21.30063744310701   10.47785957048507   24.96914677188413
In       19.39362398234611   15.33435165658400    9.06358570136486
In       22.48239766510010   17.38194842907476    9.65256142992913
In       22.70008908484266   21.50698586004332   11.45862257143068
In       19.40358383668922   19.94481416353142    9.58193473022831
P        20.15623218747137   17.67887554571244    8.92560794278568
P        20.64096334601748   21.97488201382930   10.27213538439049
P        21.59389584904287   16.18136978514034   11.57971648441636
In       19.26911952616607   17.18872453113226   14.42864819221519
In       22.35822090728057   18.77710652666589   15.00701124896262
In       21.81063001290087   23.24929868374830   16.30191156527222
In       19.54936498489761   21.30775280367833   14.57597594372866
P        20.42031396568407   19.20851684038528   13.53385984266117
P        20.28434415920865   23.69317545993837   14.41675452588691
P        22.40408155975386   20.89318328858874   16.25147630899448
P        21.58712314368094   17.37038147863942   16.86057193448970
In       19.45874174975292   18.62969901797710   19.59034479605349
In       21.97654104650291   20.79059719015265   21.22071525815467
In       19.58180243663160   23.26497504598446   19.72270079892655
P        20.41194143819204   20.93515972517799   19.35576791862132
P        20.80429134485753   25.38797253778408   19.60222461593388
In       22.63952257876194   18.49617997034789   24.75116112519253
In       20.03827666554565   24.34057917608374   10.00813062422849
In       19.50949732380344   25.98409957178772   14.97140248742010
In       20.21682805032284   27.65960727191740   20.20074614923801
