16
 energy: -0.928063075550 gnorm: 0.000127527855 xtb: 6.4.1 (afa7bdf)
In        0.46729476113768   -0.16704304909187    8.94616487387542
In        3.57149811386885    1.93026146683978   10.04189407569381
In        3.46464604454766    6.19496327883821   10.63341429707863
In        0.53224120206152    4.30413152067277    9.18629889328145
P         1.09619379943082    2.00733719807293    9.81668802678060
P         1.24987979336443    6.54978836744674    9.72930539980087
P         3.99392486971919    3.95217417015444   11.37375125102074
P         3.94088283224351   -0.05034280619802   11.40552677279652
In        0.33557788315072    0.30888266015441   13.45609136838295
In        2.96396114483126    2.22291826445902   15.01085693683723
In        3.04392715613271    6.47041425649801   14.93558516227445
In        0.41689753443180    4.03043220842423   13.34985635456124
P         1.87078276183084    2.10393041600766   12.75998120101871
P         0.80443355987000    6.32291019875134   14.03733317197805
P         4.16759687480890    4.34501558725383   15.17160068442284
P         3.82064166856943    0.01870626171705   15.53829153019449
