22
 energy: -1.468613712203 gnorm: 0.002180995656 xtb: 6.4.1 (afa7bdf)
In       11.76331004858392   13.02712210704995    0.55141490505080
In        9.24809555177937   12.77910054371812    4.23308488372094
In        7.65843828175613   13.86083027861493    1.00973009018779
P         7.55910104759881   14.29614327496635    3.39417098080742
P         9.85552000243910   14.57319498250378    0.21357965762008
P        13.28950543838601   14.96526288712589    0.61428058037947
P        11.14943420760825   12.28467991894177    2.80181770744083
In       10.51637018438156   15.68863405469990    2.30414473828168
In       15.74028182175430   17.22822817413103    2.85935264144667
In       14.01649446375138   14.22697779875053    2.85059450132414
In       12.73870321441987   16.96715723031140    5.22042018847500
P        12.00152648218535   14.91237198141030    4.11154404773000
P        14.14078284087787   18.63895863852856    4.11054742289313
P        14.74558865635345   17.48272449708297    0.61804667035866
P        15.90376363451247   15.13915793349640    4.13130223371354
In       12.72718121330224   19.52440435951222    2.29569623442436
In       14.60068317087292   22.09680738688722    4.22975637032902
In       15.66449847219607   19.77214087891565    0.55495598436201
In       12.87904171401914   22.90338045400472    0.98618269230307
P        13.36930172263766   20.64210927318378    0.19942762949667
P        12.44498213836530   22.79584160396949    3.36970155334792
P        15.98249901643741   20.69569312991728    2.79782828656497
