164
 energy: -12.002153913702 gnorm: 0.000082426182 xtb: 6.4.1 (afa7bdf)
In        3.86248647173257    5.85276750881073    4.38136307923793
In        4.18953142618726    7.13879785016381   10.37919668529914
P         3.40174364725477    7.18909134110317    8.08070927459521
In        5.01773067542489    9.22779548159104    4.28115203548429
In        4.56611755453234   13.81357954420519    4.07833642254206
In        3.55518132133630   11.54524329030968    1.24179627974480
P         4.39503235473536    9.36890515763527    1.91731736583990
P         4.15547579792744   13.89404311787333    1.64222973401640
P         5.57950351514979   11.62039995601227    4.72365913577062
P         5.96716021975656    6.98565488632478    4.89602087252741
In        2.49997101313582    9.30890580930133    7.31274999793066
In        4.29538689344127   11.40654381779927    9.90233300308469
In        4.20430530342731   15.87503113307363    9.82967017514328
In        2.46857804211665   13.68531576039541    7.30708148747200
P         3.60489259311756   11.50159849165951    7.51698207409585
P         3.58631937266596   15.88975024969091    7.42322144651576
P         5.22701393532300   13.66918045226523   10.43131474669755
P         5.44231217903884    9.26404200788029   10.51089526511321
In        5.57869513691799    9.30787687309396   15.87845287189328
In        4.80957398449111   13.83544007791517   15.80080113472668
In        4.00494320245723   11.39219340648718   13.48614784963760
P         5.30376050805249    9.30006768163722   13.43100790018539
P         4.74917576514455   13.76220012829295   13.30831436463112
P         6.11240356090423   11.72875072777128   16.07808284330726
P         7.09771692245883    7.39735020432970   16.18978394147268
In        3.22196160991738   16.14815892535794    1.33105842433780
In        4.54760238974981   18.46996352823703    4.16250129124897
In        5.07901106991532   23.09101412415342    4.35741800357147
In        3.17403283796406   20.66910981223430    1.45060234382084
P         4.06010952775730   18.42317291670197    1.73852936792115
P         5.57142946875223   20.68448509307599    4.67279294516447
P         5.30980711328004   16.13574446974666    4.62114000382074
In        2.72730104937450   18.21353114727090    7.41658150005702
In        4.38074717099040   20.39727689412619    9.80930066797466
In        4.91096000148558   24.92893596448625   10.04551085468716
In        2.81184366956177   22.71199901461575    7.41162754390590
P         3.79989027135685   20.44751645758308    7.39447623975763
P         4.04158302604317   24.78799211569862    7.75393912262692
P         5.49608800893990   22.54225509119328   10.46876041354957
P         5.21344950999153   18.10362314899531   10.35267949689876
In        3.61922901055583   15.98358961404118   13.34655869797737
In        4.58802533038770   18.36632096585808   15.69146753238583
In        4.42533213813427   22.85674572312099   15.71287754536296
In        3.57253831532059   20.52225208599735   13.20210904050299
P         4.61807722957673   18.26124352645157   13.19963526864548
P         4.64541471796397   22.74066810631567   13.27576975685241
P         5.53148173323126   20.66036627616047   15.90156394436047
P         5.68973814900040   16.15506029894966   16.02925318197877
P         6.17386202866109   25.17327138910887    5.02114179458801
P         6.20235051595825   26.94750104855601   10.59729568899279
In        9.15828981799394    4.91701478081977    5.34197151385042
P         8.78605995937165    5.04048712521213    2.94757192748161
In        8.08501118909446    7.30467031464998   10.47041559350030
In        6.51633953382694    4.69260205288100    8.29159520118507
P         7.24822388300368    7.01376361145841    8.14169176671031
P         9.80996044643310    5.59389457784187   10.57808114995521
In       10.59711085169858    5.81215975546191   16.24904336462973
P        10.11131638960900    5.68667835342045   13.86530776348268
In        7.36561276719017    7.04600867815285    2.84145894574479
In        8.13429836702654    9.59336001366375    4.97226939559936
In        7.75088316165080   14.10245703491481    4.76252937370509
In        6.83992258993880   11.60671097057162    2.57904599591581
P         8.04051166808643    9.41695763683996    2.51108887751917
P         7.53936172913563   13.98071419419422    2.29969912233486
P         8.84189096870293   11.94544970472823    5.32070643689513
P         9.04582913287479    7.37420625634979    5.63597382318261
In        6.02212327592109    9.17120439722994    8.09344343218777
In        7.79268301305990   11.48755509592830   10.29013167012808
In        7.66333837899241   15.76045774832668   10.24929563672269
In        5.96025873969422   13.62291508400745    8.05509315706361
P         7.07361377036066   11.41365832414319    7.91515842420375
P         7.07442538771875   15.82565390164274    7.84152743728602
P         8.94221664629653   13.67307953461400   10.70698865401564
P         9.20963266164729    9.51042153303856   10.84308553743470
In        8.38281781202967    7.42970382244608   14.10234570546458
In        8.99081590802822   10.08178302770880   16.19223001956900
In        8.36501310193521   14.21465530467593   16.08420025827001
In        7.29310414670264   11.81460241162504   13.90650021788816
P         8.82369860428085    9.85038188680574   13.70760009746530
P         8.26946345624895   14.08649832701315   13.58096639206706
P         9.97665834644253   12.35064875562140   16.39003776878785
P        10.67322562790519    8.26359839288243   16.37234287908969
In        6.51166249202409   16.24136454942445    2.44469378374685
In        7.78699810137401   18.36547519086110    4.77403741653151
In        8.39792496406734   22.73520761812720    5.07020278676541
In        6.85710319353313   20.81209131782266    2.55209752508395
P         7.62327495379231   18.46198776738596    2.30819325622714
P         7.98623986403536   23.03088030867535    2.63670687708360
P         9.13429726040015   20.37321918094355    5.32124610924677
P         8.93615304001121   16.22083388771900    5.25340485180975
In        6.00268147884140   18.05380019995183    7.99859539176889
In        7.79044551121852   20.09279356230688   10.26895150670421
In        8.31890483703626   24.32838778190242   10.37822673025608
In        6.36996818288186   22.49030307563739    8.14601335423852
P         7.25420391364144   20.19247354905413    7.85610268788599
P         7.51472822084123   24.68676091407217    8.06749994823185
P         9.25897060128737   22.05229537722256   10.65050190108223
P         8.82999871159857   17.90206780470855   10.80944836401593
In        6.91463931969331   16.16373587677541   13.88148878173866
In        8.06695151990604   18.47322707315565   16.13880228038029
In        8.38337816541448   22.49021917139273   16.34634566770570
In        6.92225184752059   20.65037557137072   13.85258168468101
P         7.98885612418862   18.39881400242644   13.63890495777528
P         7.98738408795340   22.89864535080530   13.92890131781963
P         9.64952340519994   20.36979573506880   16.33360610263255
P         9.46331727982337   16.42649748085696   16.31648573097214
In        7.56374719928932   25.43489708722041    3.03469953159578
P         9.97321845389016   24.49260072182517    5.70747578890458
In        7.03100843230523   27.09828353963960    8.30001132756080
In        9.80348981392850   27.92866946810971   10.52593400085643
P         9.36213561565704   27.84062476309896    8.14639031544844
P        10.22955050383917   25.64062668860017   11.29341890172190
In        7.41235283387532   25.26315562323517   14.09410875916139
P         9.94835492091847   24.32406854439139   16.80726976655273
In       13.36935956377917    7.34380952544229    8.92679160313776
P        11.34709388801856    7.47623478434777    7.59395913626733
P        13.07054629461170    6.89902499684674   13.13535205802991
In       10.61230821974744    7.78135211901238    3.73732501585109
In       13.13605237102017   11.31906653018368    4.88440389154592
In       12.89266434726382   15.20138796416402    4.49912304852899
In       10.13044415706126   12.26669270890410    3.20852944543840
P        11.30707909844735   10.15108158051090    3.72597517657081
P        11.40616776632296   14.33830016229617    2.71513338479555
P        12.05855749416638   13.30844161150856    5.86705007957628
In        9.81293829607282    9.21764691219411    8.45758007162494
In       12.61801133177553   10.89094102626428    9.12218262217312
In       12.40835831640340   14.74591516329842    9.25123249867485
In        9.63586035906555   13.32454298305696    8.34488232176131
P        10.80791210550253   11.27703357102928    7.46235389995617
P        10.68976407965883   15.46290500281369    7.58527969639899
P        12.06308698302247   12.73773585256147   10.68992702151393
P        12.72025207775083    8.94044900600601   10.64492991052203
In       11.71894306389451    8.65830357780707   14.15959737247376
In       13.96597303130105   11.32657224988955   13.66351923571605
In       13.34532003642044   14.99300478580802   14.05407165246961
In       10.87570746994581   12.52580494055874   14.09568335542300
P        11.78591734335998   10.67522497032582   12.64470086932817
P        11.27913560699502   14.58952203069481   12.68215260123022
P        13.79330159393179   12.99830879997750   15.42807568359293
In       10.13062708365612   16.43079208003207    3.08979261923364
In       13.11920558647119   18.88158121772821    4.27214868845439
In       13.37786688368914   22.58418082962973    3.65398408939951
In       10.26569902051527   20.50502001539613    3.12456934049736
P        11.46616783325299   18.43357937915435    2.49304965588189
P        11.05401508616735   22.82859911777500    2.97581159613628
P        12.89265855990787   21.02847530172290    5.46584974881242
P        12.08884145762797   17.18970815839846    5.75181292803628
In        9.65134308967786   17.57009435235725    8.49040825201551
In       12.55277257288432   18.53822095278324    9.27071320895640
In       13.49922262675317   21.99423988646073    9.28798280952975
In       10.26049154084827   21.47941556293732    8.46354896658714
P        11.06190597302717   19.34672016658403    7.41570754276216
P        11.98557010281645   23.10850875508305    7.68776623083559
P        12.33722777948721   20.46874525440700   10.81854195628353
P        11.92523964852874   16.63967997959906   10.77527911483029
In       10.43663832001146   16.54393536207100   14.04853888481915
In       13.17360996787927   18.83684593138888   14.18158915398171
In       10.37063974364842   20.56860244033910   13.98564831130334
P        11.16995838585059   18.55724445714079   12.69875972207401
P        11.57239613119766   22.52675916718075   13.07143736808569
P        13.31882424204072   20.71169247744348   15.71909648835262
P        13.20464923895187   16.86188850116648   15.64744169052497
In       11.49168529368108   24.88063582403285    9.32847805674399
In       11.24030046146488   24.22763788545541   14.76819631886623
