274
 energy: -20.576775425689 gnorm: 0.000091463288 xtb: 6.4.1 (afa7bdf)
In        6.10895094502200   10.57159953418780    4.27285774845781
In        6.00430495430252   15.14077560475406    4.16421528735919
P         5.29083673761758   15.35875796410432    1.83283620468670
P         6.91175069366260   12.87581526014310    4.70139487108042
P         6.94299087581956    8.34955314295865    4.85658860398040
In        5.98928324898977    8.44800868727399   10.04012772046051
In        5.87010010214925   12.96824471583064    9.83371399149499
In        4.04861212497153   10.77649622816856    7.48402572728694
P         5.11948023677545    8.60266515286471    7.75077593420954
P         5.18895477677090   12.96944854022289    7.44564934432358
P         6.84892693690742   10.74842701258046   10.46231260024301
P         7.06908095353132    6.33132758049422   10.66120304164054
In        5.89448702089792   10.73296175158445   15.75763463470311
In        6.26561834724056   15.11280893304823   15.64399055262691
In        5.00878064846477   12.99222624317573   13.21954857296390
P         6.02977852671061   10.75382854598755   13.30899672977478
P         6.18542614644792   15.18391465272943   13.15214798573937
P         7.17091977490092   12.82443473048870   15.96900546643774
In        4.55919395701439   17.62596028624955    1.36193481103436
In        6.02297489175978   19.76889457591388    4.19290904711632
In        6.17707514942099   24.38178448906697    4.27066345119791
In        4.62567256791377   22.13812463551276    1.49842715984908
P         5.49964468915273   19.85734575679871    1.77729165887264
P         5.65567793502351   24.34082786128977    1.85426176759664
P         6.93491901451278   22.04083529809663    4.70911409576121
P         6.83354819168073   17.44863825825001    4.64909132298958
In        4.20270839373664   15.24333420922935    7.45720065502707
In        5.78455249932672   17.51907758783167    9.78786156444559
In        5.83582928189313   22.04988092203369    9.84194704898733
In        4.21613652648781   19.83537968136385    7.44258652214006
P         5.14910493589703   17.53588999329727    7.38731665052732
P         5.22146431364139   22.10402883561534    7.43649776265430
P         6.75201895138610   19.76575793122966   10.31909822304740
P         6.75884321425113   15.26469325711138   10.28476684034021
In        5.08542621105157   17.41652453849549   13.28006608898201
In        6.21536537070321   19.60279325030801   15.69127324147988
In        6.24076556787011   24.09110022407851   15.75527387831989
In        5.09249241487356   21.89439155086097   13.32420185046761
P         6.17893728705620   19.65656750426920   13.19469633887885
P         6.18478040075726   24.13389610357931   13.25823799066407
P         7.26741460011660   21.83735168001946   16.02257050600262
P         7.26499434032033   17.36566784470708   16.00175202917835
In        4.90553445611154   26.63896153106494    1.42940220376635
In        6.47579798854817   28.96369013507522    4.37763445253004
P         5.75228336732386   28.82735135788300    2.04365919729288
P         7.50682617860820   31.15057903926451    4.86494782906824
P         7.16744904400707   26.60978494442985    4.81750689381369
In        4.34136577203615   24.42076869461959    7.55524188663743
In        6.03324501944060   26.62997211747569    9.97678357070562
In        5.79196308438825   30.93497942771121   10.67727796411899
In        4.05980023063360   28.69812820220919    7.47825949246911
P         5.40099313246922   26.66104339350719    7.57345527790900
P         7.03405258697185   28.83899148222584   10.58016135381505
P         6.81680472640120   24.28758135589428   10.38703189909996
In        4.93679976963815   26.27504044271464   13.40934440151865
In        6.53353965878990   28.61499355132294   15.90848094846290
P         5.78073938679196   28.55991576212930   13.57510586978887
P         7.55087466981561   30.79708810106660   16.42321318716288
P         7.35079283983077   26.28239541720982   16.15896817420703
In        9.99707479038321    5.75008025158867    4.96198563360751
In       10.37049075885126    4.28538310354067   10.99217852278980
P         9.33223177691178    4.02414064647829    8.81495451115739
In        8.08451317591948    8.15845099296721    2.69815646989734
In        9.53631280955525   10.43406660570106    4.69786374143887
In        9.33158468729215   15.07860921622041    4.60765219013525
In        8.00838305051778   12.77066793740530    2.47148417479583
P         8.91026367022191   10.45488812965498    2.30692295880632
P         8.84483295405583   15.09801425886585    2.18341635905533
P        10.27480642782817   12.80291287449502    4.98314558045464
P        10.50696536399633    8.14985755155996    4.95319544694299
In        7.96567399287097    6.02719728293876    8.40314575672361
In        9.61285797554593    8.44232110436520   10.15117367466997
In        9.22406915563397   13.08859726492306   10.08359435942353
In        7.64049289956892   10.64642314842570    8.10964681220057
P         8.63063270757097    8.36582662439929    7.87869419254010
P         8.44169430045289   12.98000255985833    7.72631387758137
P        10.14931611228695   10.83224516522875   10.58766899984669
P        11.17025108612726    6.60320758959793   10.81572465110612
In        8.51687200887170    8.09067322054817   13.84186171923219
In       10.20980869269095   10.55297294232380   15.96554266522139
In        9.87283229481586   15.07683754493607   15.90416077590709
In        8.41528413317352   12.74258819090556   13.83873522879107
P         9.29486245346823   10.40891312213372   13.65722919613088
P         9.26560537632326   15.07081569599092   13.49245848945368
P        11.03104915521213   12.88641914110877   16.06454343813546
P        11.43285807862761    8.44261204256414   16.24593940067151
In        7.91861499832462   17.39888144522931    2.41770618094829
In        9.31661859667904   19.66038981697064    4.60307647021358
In        9.49121182158405   24.24655305821854    4.68674017425676
In        8.01864092641559   22.02779794549996    2.47615802758218
P         8.84858076106019   19.69774430831917    2.17419348455893
P         9.03989490827970   24.28868834748991    2.25513070811067
P        10.30400572846092   21.91413968196938    4.98184320553515
P        10.23710777391722   17.37583451590896    4.96127922451097
In        7.48972971443287   15.27555191711486    7.91229312474950
In        9.23608913983077   17.50991671194563   10.07452869728449
In        9.23446642578946   22.05545069176682   10.12852824531567
In        7.50497050132421   19.80011762483825    7.95329369827533
P         8.50593625291170   17.53398186984295    7.70422953413720
P         8.51093105359964   22.06972959599547    7.75333107955421
P        10.12838850226481   19.77798006015789   10.61887377727268
P        10.27093323464610   15.29141383794713   10.58182372923228
In        8.39945890376618   17.39267176450407   13.80811625901672
In        9.73420357292791   19.57993287208781   16.01190128262941
In        9.78182616862433   24.09359231696540   16.06518970634328
In        8.43690234707024   21.88278058867658   13.84667985500342
P         9.48944621836968   19.63202399897161   13.52296572470877
P         9.47597419590006   24.14943750639535   13.58669121824864
P        10.76502074733825   21.82250924337800   16.34253642586040
P        10.82423345258191   17.35055223797115   16.22660757154072
In        8.25996382944292   26.63049877178129    2.58786784527470
In        9.81410029152665   28.83215514214647    4.81322340864768
In       10.38270276946113   33.43461305258526    4.65790075557175
In        8.57963908374801   31.21763847789462    2.65594990952884
P         9.33221823835409   28.86743651575829    2.39034237755696
P         9.88667825197277   33.26685433112699    2.26276370812820
P        10.86873827420752   31.05794076752992    5.20992661551212
P        10.53868368798318   26.46709318778258    5.11310631973627
In        7.61345929299289   24.37641020818210    8.03808051183256
In        9.38502679095152   26.58781031685787   10.21990384097620
In        9.71668280742602   31.18003070286626   10.30929811801267
In        7.88964042418265   28.98183441675019    8.25688603743213
P         8.64131185725916   26.64001147222579    7.85232333263268
P         8.93735553694215   31.22407505354171    7.95427654067403
P        10.36734041743681   28.81749553987213   10.75356837113256
P        10.21820902320281   24.27785797463724   10.68068552058502
In        8.35646797965251   26.37298792503008   13.90410588442087
In       10.03463782416526   28.66084577923755   15.94251109025146
In       10.40405784288976   33.33021375389495   15.85012099793873
In        8.29912539205172   31.04826817167402   14.10029843494602
P         9.10906155011930   28.73688550250042   13.63758909442330
P         9.27181075793104   33.27740143834244   13.68730253497653
P        10.97715303909789   30.95229359018367   16.16288334252960
P        10.83585215846903   26.33535922281404   16.34129069093168
P        11.03892587923547   35.65896076701183    5.40130174153925
In        7.76267351183261   33.35884608854073    7.98265551937943
P        10.69802124670846   33.38721222223427   10.78640428383030
In       14.22235274296002    4.75395587211508   10.09781762481396
P        12.92756633028497    4.35409749059869    8.08841242771081
P        13.87776786629897    6.33580256564167   13.77927879903424
In       11.65146094509946    8.23947665384049    2.76673648699078
In       13.03150961820076   10.49990246207052    4.99069892123093
In       12.64016553412165   15.05909476468291    4.85899597984773
In       11.37894144026901   12.71486382540214    2.76336035433068
P        12.54137359081574   10.52871865742640    2.55269094482948
P        12.22777305183589   15.02961616778165    2.41987777988194
P        13.74970073989108   12.87646139356150    5.24062865160476
P        14.50410871704114    8.64740568833897    5.60115930191937
In       11.59835591130292    6.40165766973736    8.38131841683416
In       12.87794983012620    9.29091080152316   10.07407592473746
In       12.91608586699267   13.19859995598454   10.15632844754098
In       10.84302225103881   10.96880276983962    8.20240735533842
P        11.94896602052749    8.78979331126744    7.81998483621511
P        12.05329877835625   13.09558885499478    7.84655479771611
P        14.41936908280903   11.21956675919174   10.31337758940257
P        14.21223985009768    7.21043188477644   10.17431381793303
In       12.45499643387409    8.28745086818344   14.03171201653985
In       13.65024575575925   10.91522665901396   15.91811580899686
In       13.52381090092265   15.08453881601594   15.70316692659320
In       11.72050831697278   12.71957376472984   13.69132485500823
P        13.05356587414980   10.63365950021437   13.52325824038246
P        12.58212768590826   15.03307219913878   13.40293490234818
P        14.91722646232931   13.05003972529560   15.94707654282656
P        14.90504911158337    8.83529699243040   16.32347878729102
In       11.29834864269323   17.32011583551632    2.71569918745832
In       12.67003263413397   19.63786939290745    4.89237694324089
In       12.86671289223002   23.89388164845708    4.97631552222315
In       11.36195215235202   21.87177816127857    2.73120619630098
P        12.29197978858388   19.58348863510076    2.44749683836748
P        12.48614284500638   24.08206694203227    2.54102702252967
P        13.98342054189286   21.70480615912734    5.29710325609559
P        13.55877292135376   17.34071388852552    5.19476965172107
In       10.98827015540540   15.30379770224731    8.21115338471857
In       12.51695872182514   17.65611020624361   10.23567402176901
In       12.76619922185444   22.11241667851403   10.30302673576946
In       10.87219775033713   19.89625329817272    8.25193327168807
P        11.78376981763357   17.62364946566993    7.86191258375061
P        12.00063566263989   22.08191720088818    7.95427968082222
P        13.65131320823192   19.81863755832303   10.70829727489399
P        13.75970733100584   15.51477337488837   10.47361078725263
In       11.65442092208639   17.27619262520020   13.90297359272762
In       13.43732606016910   19.42948105111628   15.90491253013465
In       13.56392864160725   24.00743815682035   15.89016970830987
In       11.70892502507080   21.80941242821491   14.06588659926467
P        12.60498020683012   19.54562213180560   13.56056193426768
P        12.59001695218200   24.08666223572300   13.59843860198456
P        14.46036087348863   21.69230987044085   16.08707831449196
P        14.67039232628456   17.28055786750017   15.83755850857414
In       11.67886005006084   26.40845037868755    2.90547520492798
In       13.09412781644451   28.54927366173547    5.19295215900791
In       14.10636397560015   33.06682470928285    5.40399208322453
In       12.09416754380047   30.93350227031866    3.04969712896090
P        12.85644895360425   28.58891895413061    2.73495133089487
P        13.34761415201523   33.04928169864157    3.10235680082745
P        14.36357143025234   30.63430046309393    5.63746092496422
P        13.75444583312358   26.16754139615561    5.45269802592487
In       10.96162616461920   24.30614165630669    8.31232984347016
In       12.68340016617005   26.55230042610517   10.38791348358478
In       13.19326645155360   31.06644521332172   10.35563124761049
In       11.24580956139570   28.90752065553790    8.43808158712005
P        11.95073487648880   26.56104831705651    8.01571103537937
P        12.23910747339330   31.14920547775469    8.05867182292611
P        13.83861000390066   28.70323550008740   10.83527561375752
P        13.76798444666687   24.34138361357200   10.75744148512790
In       11.66831727417534   26.36039970995453   14.02101369669688
In       13.49259320750900   28.63946467456789   15.86311715454596
In       14.20837969707035   32.72629493055279   15.59930633630038
In       11.61664163913410   30.96002577005936   13.77389543852459
P        12.50060145239075   28.65083420055002   13.58874922561461
P        12.82387833693251   33.12321987369015   13.61415270729244
P        15.14125187567251   30.46224936251796   15.54992286965231
P        14.39572089061894   26.33935232162303   16.12954225496835
In       11.67227811786338   33.49950419499289    8.56211558763110
P        14.74156046743078   32.93262252303024   10.54692532867966
In       12.59178367385966   35.51172849420033   13.22976808712236
In       17.96888671917613   10.57297925817251    3.72453308100461
In       17.59994435482814   14.26155942588370    4.22455675322290
In       14.79085202378971   12.81483020825401    2.99212162100906
P        15.65953481117379   10.51494896949695    2.96602132703846
P        15.92166544897921   14.97591933766489    2.54853943295775
P        17.64510087263382   12.17235747931893    5.53269173248003
In       16.31785261884180    8.10490188836799    9.27693515124945
In       18.31018552776400   11.26148340077578    9.34347313598826
In       17.42406234015622   14.98837709001631    9.05618220475844
In       15.16410316799863   11.79275298139331    8.02407852677528
P        16.86475488954510    9.99153690690182    7.79431280566322
P        15.87271392488468   14.08970667022918    7.30714987650286
P        16.94811565381717   12.98727006624727   10.44955371297617
In       16.48238398563574    9.32656093353946   14.54928694710121
In       18.03662542903134   15.10829935449006   13.78044590272456
In       15.24478407538090   13.06038757399297   13.50274749561504
P        16.57282839194561   11.06710971467718   12.86706362243598
P        16.01737837765331   15.15316796576396   12.32596906955287
In       14.74411031928904   17.11340897406967    3.01991526331571
In       17.61206304503516   18.39250061250326    4.20862173773755
In       17.57990155281322   22.57105845020159    4.50459778825986
In       14.91907883856728   21.44310042598870    3.01869356455466
P        15.95851823752445   19.23123968382599    2.56632369974923
P        16.04909319058772   23.65174334864200    2.88115201963149
P        17.13980551222408   20.39831783322078    5.56061284299764
P        17.03056562074026   16.32763408317798    5.44377211210417
In       14.56879855644186   16.03079313831957    8.18731729213442
In       17.57866625418828   18.67092951080297    8.67306763389866
In       16.54591294547901   22.74561931479264   10.13694843721641
In       14.50329376582610   20.00042844456559    8.39820712043546
P        15.62959075747975   18.11288071524123    7.21370315367780
P        15.39028033860872   22.28952845153579    7.97845723850135
P        17.96020470077688   20.75955042161518    9.88639666718908
P        16.90288615714093   17.03468923413122   10.37516000586066
In       15.11825271472072   17.24649058305084   13.41570234208847
In       17.79088384218404   19.31843163695795   14.15593663925776
In       16.99523781292286   23.73743956939790   15.41615702738798
In       15.07508309265187   21.52659268688844   13.69686246349811
P        15.90343333596020   19.46353420917377   12.55498954334874
P        15.67276473857081   23.91978442416293   13.31616965526732
P        17.87896199165839   21.43842340880784   15.39532722453914
P        17.93953024376743   17.09429851993280   15.18423039461665
In       15.07827712421937   25.88917243604854    3.35893488188081
In       18.27030545747154   26.19442952798334    4.94833726883897
In       16.03497254490838   30.03923474501296    3.93139010104251
P        16.73170023484505   27.69407846965860    3.75706637176516
P        17.14472002527092   24.36672638281998    6.12859586829205
In       14.53983329157129   24.59340777342344    8.40901025418767
In       17.74030137780166   26.73305858591678    9.11165592869340
In       14.86810754804039   28.67853331201104    8.58281402171914
P        15.80115590002573   26.60046032949467    7.57588983932895
P        16.23735257486913   30.66909040855101    8.30392190579377
P        18.43127187206050   28.86207482659312   10.06349929118511
P        16.87054693209456   25.13102864094346   10.76839530878452
In       14.97488407992684   26.28428833073162   13.73177095742578
In       18.46384455555280   26.95225628426272   13.46877706435433
In       16.08270747062342   29.92369772134881   13.36165033194796
P        16.42556084256181   27.72159755553485   12.28524075048441
P        17.83932669724488   26.03873665136666   15.62537525267216
