38
 energy: -2.252694675224 gnorm: 0.000729262248 xtb: 6.4.1 (afa7bdf)
In        5.09271914831417    2.84574434594319    4.62641513138121
P         5.74797431361932    5.17610392118437    4.39759023444760
P         5.60481302657312    0.64526856422574    5.43721773709780
In        4.68457958725292    2.17552322540533   10.55115723064049
In        4.27489152423940    6.15338840368055    9.34032528273508
P         3.43590187621976    1.82169375851454    8.50667100230253
P         3.62253724418697    5.66842033820476    7.08181965864868
P         5.72799244051876    4.42278909996631   10.31882235034912
P         5.71409163564727    0.08566533558582   11.34518492048929
In        9.03569366855859    2.66009712191530    4.40333251775874
In        9.98558029046017    7.14389561534989    4.13433615870112
In        7.12394726063589    5.03264030270689    2.39975641542067
P         7.97386067317324    2.77275907753284    2.21026745049848
P        10.02627651615930    4.85179187591270    4.84013211981738
P         9.28051294145538    0.56272028448259    5.59015655990588
In        6.39194720346908   -0.79107424556169    9.17900391064641
In        8.09930630078368    2.11850566608645   10.48215151412639
In        8.20238359443536    6.42825025073512    9.26863786393058
In        6.43989221646364    3.76356833074472    8.03255663782724
P         7.10855053676322    1.40045581796919    8.32974618164983
P         7.22518411974550    5.89779646141390    7.10301096822451
P         9.08549737914947    4.41349084752198   10.38627685583867
P         9.35867977425967    0.08699481603688   11.08926802252804
In        6.19129888652254   -0.17603510997247   15.07161357006770
In        9.53426411903514    1.70523215740561   15.83890501001463
In        7.04516112425787    3.38625541878078   13.88579444572766
P         7.97407199348246    1.10623314731012   14.02984456687281
P         8.00830987142962    5.48417639978389   13.21916218894385
P        10.77448059706725    3.78031305501348   15.69614414966885
In       10.40485592391486   -0.40268529540469    8.95695514347079
In       13.05630727457701    2.43500988890699    9.38919531423938
In       11.99951546234365    6.50743227032165    9.77135660621233
In        9.85130515889733    3.67739019576605    8.12657038141763
P        11.28333179823962    1.64663968748568    7.92903481461734
P        11.13470241126356    5.73119802527672    7.67134561511849
In       12.25819140741452    0.80479805211863   13.43411667718385
In       11.67015422717695    4.45234256700935   13.54827356166443
P        10.81037897228995    2.46233032464244   12.42099122979834
