24
 energy: -1.647823882283 gnorm: 0.000655259594 xtb: 6.4.1 (afa7bdf)
P         9.85402183773223    5.55919646927747    1.96808200628011
In       12.45309816984904    9.96255851654636    4.32584903810914
In       10.71349935618635    6.10427213415843    4.16807700363960
P        13.62064087547834   10.96571025897068    2.45866656915577
P        12.72052925715137    7.52939163870783    4.07624466440564
In       14.98533499052833    3.47933394279715    1.57265122461716
In       12.75397993644595    2.63128662967229    4.21549702080601
In       11.39668680958073    4.17708541354409    0.66205470068058
P        11.75181171195293    2.19481608735561    2.05291170776666
P        13.25236999359276    5.22423205895357    1.92788719324578
P        16.45147113138816    4.71212304460162    0.00778853785394
P        15.01978953904688    3.58353500867580    4.05871601397116
In       12.64061606310849    7.60873122713426    1.58800259826698
In       16.09297775133429    8.96430853291800    3.91834062965279
In       15.96319072325177    6.76207649654756    1.32100981535168
In       15.29189350901163   10.35639867394227    0.78556292805944
P        14.43274208676696    8.19049415008470   -0.01591997924442
P        17.33958775264942    9.80160372226683    2.00646481088774
P        15.57025861488408    6.54336386765851    3.78922798966686
In       17.00242817438228    2.14072022592126    4.26426959360055
In       18.77499643520504    4.44219078051983    0.78243322565288
P        18.51422409136893    2.68426113337721    2.45601713638847
P        19.28112986265384    6.49546193210409    2.01328106762813
In       17.93458677124642    5.79648554320097    3.91424450355709
