94
 energy: -6.384111004857 gnorm: 0.000142606918 xtb: 6.4.1 (afa7bdf)
In        9.59516506104852    5.99976444453302    5.96898877341995
P         8.50704166379694    7.96976642490740    5.02869384213804
P         8.57209084673161    6.14090366571397    8.17621489605712
In        8.78974108221372    5.98743016965866   11.81843501633741
P         6.78262660306082    6.71696652348547   10.61443480316407
P         9.71575990259091    7.63448305410909   13.36739798242827
In        8.20155106365112    6.37916553140805   16.77126069276607
P         5.98689411674639    7.08293174243776   16.06858126651060
P         8.61597223548796    8.31907165452283   18.19721216045238
In       10.31138209068010   11.98882803489522    4.15471643525667
In        8.85011093721683    9.69185124341159    1.83339107762645
In        6.96191177304388   12.79636532358612    2.90040424072737
P         7.48417285458711   10.53292834594640    3.68282981846389
P         8.71166418442756   13.88450052546675    4.26463860009798
P        12.46436399493967   11.21900686289615    5.04103987933869
P        10.40636400007118   11.57318546797854    1.73794910942604
In        6.63597083994343    8.17044203948370    6.59669350678334
In       10.60347460252189   11.72799661395465    8.46053465233127
In        9.49829734586340    8.38248161308364    8.63789342044189
In        7.46603757229842   11.41833412638447    7.31544485681077
P         7.22618076466022    9.37250373189269    8.68229578240817
P         8.44995785928072   12.87794831385451    9.07750440419468
P        12.96334736837344   12.44760367924721    8.50287259713414
P        10.80423997347563    9.71092583841979    7.04384986259422
In        4.99305595468542    7.33829803152847   12.15581788617853
In        8.77484696701203   12.14699436066849   13.07831257585544
In        7.80421131030126    9.09500832323555   12.81885968134126
In        5.07245332130032   11.19759796851941   12.47778944874641
P         5.49482337183391    9.13138982506491   13.79326768926563
P         6.47068337524009   12.88748289850564   13.62722329222775
P        11.20341837199609   11.74718118867441   13.10327210615369
P         8.09474952376552   10.83637217848336   11.07705327846252
In        5.36774685349598    9.04389927510980   17.39910379489973
In       11.33039205747325   11.27825182390877   17.23616644084622
In        8.37824022222477    9.84332758440477   16.26238148431686
In        6.76725019454961   12.40357685975057   17.80082831431070
P         6.12343262844479   10.90786399634197   15.92551228468412
P         9.24155669658373   12.37109118052732   18.05832420881547
P        13.15502255249104   12.76116833269320   17.97624062743366
P        10.71214032517767    9.68358415574974   15.45310343080492
In        9.75043596192316   12.08441588404607   21.91722953308594
In        9.03302501872975    8.65836266220598   21.90753991509414
In        6.19482374987081   11.64605898930636   21.91274221360542
P         6.91416404355970    9.48890768448409   22.74220043806982
P         7.75249565293756   13.51609223864284   22.18752696425323
P        12.05858574815099   12.22669470036603   21.08690494192338
P         9.16308429670059   10.40792168878729   20.19109856366296
In       10.11513926213894   14.98852174648417    2.55231556313939
In       15.08306324828020   16.42897630467412    4.63580042516764
In       13.56874018598097   12.65080217021750    3.36413385890271
In       13.55858007380477   15.86423337508448    1.57704939519129
P        12.13652265660859   13.84855996882144    1.72352907472080
P        13.27886335041645   17.49178380292967    3.37685261240759
P        13.91931304371217   14.34130717805273    5.10560023289460
In        8.60773926759511   14.78116644554679    7.49751963874683
In       13.15393847786867   18.25808187162889    7.52455264967363
In       12.44405162414544   14.82989743034769    8.14135179627265
In       10.42015981923271   17.06543876224345    5.90917364309508
P        10.77631654753875   14.63499800246448    6.31115595164789
P        10.87252734989916   17.62591625964539    8.26578465486578
P        12.53915519807093   19.57019012164443    5.51662105728290
P        14.45238315733709   16.24495100512845    8.06929354825020
In        6.85587265147544   14.49094312422987   11.77951672053261
In       13.42834010371264   16.67989311779326   11.75096316754328
In       11.40129837234924   13.50274684079066   11.38420620688127
In        9.82839412458417   16.54785138825940   12.76185089862460
P         9.24903262780461   14.76601061362443   11.15434127641046
P        11.92621444629160   17.57918622078108   13.53540073942443
P        15.63883344295460   17.50900444974277   12.46550926708034
P        13.72194873298670   14.24073296609004   11.75460985689118
In        9.39001268007583   13.91370636872695   16.12774930240080
In       15.49770607549142   16.14724732123633   16.77187699755168
In       13.87713844446375   13.21651827688974   15.67583504590335
In       12.05610074874512   15.94621976943667   16.63423668378195
P        11.62238718749551   14.08190381861289   15.06997150063767
P        13.64060862487686   17.26616048195281   18.00428853941723
P        17.34543743558941   17.70846963122174   17.20840464279594
P        14.83429939547635   15.21449592136262   14.58278721136266
In        8.24097308402495   15.13863735397958   20.42927276977223
In       15.10811284415103   16.64288349687288   21.43537474133172
In       12.10770928014215   14.67842541280896   20.98226362533693
In       11.03868136955738   18.00558621452813   20.52929603433500
P        10.42477426509070   15.82915983598601   19.56567902021882
P        13.05968292080025   17.86904005261862   21.86315860902548
P        14.31725283953220   14.91610676179817   19.90943451223172
In        9.21013352479744   19.03210982145853    9.38729164114734
In       11.60086590235479   21.25358978562951    7.02250806064702
P        10.62497866994050   20.99489561950604    9.23051401106654
In       12.10670507846470   19.79744018822295   12.44339620014866
In       15.81742688836953   19.41059197667877   10.96590429258612
P        13.52657510759176   20.05797826509376   10.47581056406398
In       13.09801508083778   19.37939106955624   16.86128976293444
In       16.51625648764617   19.42790061951813   15.71415827564637
P        14.33816102352359   18.65676011579032   14.86888892858318
