192
 energy: -14.432812854029 gnorm: 0.003375745690 xtb: 6.4.1 (afa7bdf)
P        17.24697083155034   13.14062029106664    1.09646282211070
P        16.88791144477870   13.20006495673718    6.13796184698528
In       18.24637759071468   17.00717080673238    2.71950891524290
In       15.87862809544606   14.54215274571376    2.59854329513973
In       14.48593961662728   18.53707972114540    2.79297110128355
P        14.71374383672797   16.44859241922316    1.58713530797575
P        16.89925477663098   19.09638958001569    2.78794701434005
P        19.98015172258815   17.91936133201609    4.29081128120936
P        17.48536203042836   15.28128895840678    4.36547006228583
In       17.68262777511866   18.12067723596987    8.20145578787452
In       15.36337602802166   14.69426330755030    7.40562411072718
In       15.07210383611201   19.08686966616825    6.48865564116459
P        14.91415182215717   16.69002160888960    6.03800607187298
P        17.41066547314755   18.65335436911834    5.75704808675477
P        19.72037007364223   18.53928060508131    9.54649821968362
P        16.57269487435897   16.07362700589221    9.07040212689195
In       16.90656853626813   19.46562245623999    0.33165116060908
In       21.41006180744899   22.83848608188734    1.99955007686713
In       20.20991040377062   19.75974977449579    2.58082259885875
In       17.54584620186441   22.57299527214558    2.52862230225465
P        18.70398064740575   20.99693075766934    1.03946924475742
P        19.35061960350205   24.24809206037567    2.28126285735556
P        22.39456289471283   24.26116965495009    3.81597035430171
P        21.81423914251209   21.20295315863304    3.85127216995424
In       18.84612142980987   20.65336063869797    6.17625835583734
In       20.64804645087091   23.42954154061996    7.50269348803751
In       19.38130271982662   20.98790302463397    9.66948381239485
In       17.58764857154551   23.75938760904042    6.29281020836436
P        17.84576635915494   21.97818479760327    7.99640432747594
P        19.82872563459838   23.94342931766739    5.19439396153618
P        21.80851850861806   24.92801268410947    9.10459458175201
P        21.65120382797277   21.66732397584919    8.95293922750123
In       19.20108074063023   24.72602792599248   -0.13779578128673
In       22.08296269849939   26.18669742557801    2.24417350262355
P        21.53303880041984   25.42085764821207   -0.02751999199941
P        24.27643616874754   27.16404315003818    1.74537273837636
In       19.42569068241806   26.38575437596556    4.96431478208167
In       21.77712737885092   26.81855942002120    7.51414479214074
P        19.34121951204618   27.06381325722379    7.29324979230191
P        23.51509505926724   26.21693628624330    5.85468548953488
P        19.86460244511498    8.82477166553763    0.79191291529173
P        19.36152464701816    6.01863258005427    6.26823758507126
In       20.75858248619182   10.74966425023822    3.41504683756484
In       18.55517056584018    8.22042299292622    2.77428138083435
In       17.27503022964311   11.42202753674737    2.85444119460670
P        16.32424683101297    9.17277088770192    3.13904806208924
P        18.92290762920700   11.87132051436026    4.69334102274151
P        21.03716254787258   11.71381353265892    1.12912678683111
P        20.34030460896346    8.50365986369915    4.48982791042842
In       19.39563136849713   11.19012482559618    8.87972922648360
In       17.88685558974258    7.56766458569557    7.46928940422440
In       16.57217712611022   11.08766729923157    7.43557992304928
P        18.25247863933174    9.67338299700706    6.22450953555492
P        17.43778005004221   12.70599318785689    9.13465332546521
P        20.90071371917644   12.07580511740153    7.09767274697456
P        19.07175820038660    8.75557918090577    9.27145054522053
In       19.37796972012324   13.96366961341933    3.40394180271504
In       24.50717287987900   17.22798289377616   -0.20314187015534
In       21.76284861805937   14.08873107636389    0.89989458591486
In       22.01012545853426   16.94796061290293    3.17688417912175
P        21.80890293753646   14.46468715050989    3.35580473729746
P        22.87233057283688   18.31073372729738    1.30405637647662
P        26.33976226283341   18.64709963398372    0.70325275762519
P        24.02136959936341   14.81630856219186    0.13373998210341
In       18.62939796823481   14.81068284616221    8.46319253483943
In       24.07905652578019   18.08585313390197    5.84952970119718
In       21.38565529780404   14.45665531857127    6.55387099474837
In       21.14685584776856   17.60887991126895    7.75298339982557
P        19.50625696806525   16.14301829071855    6.50203174960490
P        21.85799561087710   19.28330194066876    6.01407105599491
P        26.00201121330744   19.58975330370161    6.43239997546863
P        23.51329812604421   15.75311214481954    6.53997028693735
In       23.76956117918144   20.08361498824794    2.79198741044877
In       27.86430157332963   24.21603968540094    3.26936634038910
In       26.86661853144249   20.96575171010491    1.48770458543976
In       24.57652995826998   23.81863243536561    2.64277543487022
P        25.57546905985241   21.67540669212514    3.49050698716865
P        25.80718247192081   25.11027284614513    4.39690657848134
P        29.43827806237154   25.19205107413038    4.95678509686527
P        28.84131748855404   22.54147436639546    1.68690398627371
In       23.26277124840621   20.99845259830005    7.20114852373947
In       27.47343839191776   24.94040417438822    9.17666549096073
In       26.56457122963052   21.93219037927953    7.10908541615768
In       23.96999179241219   24.09851027813815    8.18584706920232
P        24.50180467925215   22.87879163568451    6.04089129036368
P        25.21884194087438   25.96682483719223    9.25167973656795
P        29.14285247864887   26.55283094825629   10.05347818706766
P        28.54915434008074   23.39512265494382    7.52178513261260
In       26.37251107570526   27.13134584905434    3.01591197169049
In       29.89846768019879   27.04581709822385    3.33841204087828
P        28.28810158656407   26.87188313730697    1.48952534850464
P        32.34928339767323   27.21248889929787    3.36386559247548
In       25.15232643828037   27.44314746248934    7.27979481664265
In       28.73561636041809   27.78984703775790    7.94084905004062
P        27.28060277063400   26.54383315913058    6.34873558916896
P        30.84548718257334   28.44016589114054    6.85189880078833
In       24.69217669815386    5.20092864705208    2.22864773238705
In       21.94194060740636    8.32800304675960   -0.38312029936473
P        23.26514227169753    6.76464293136034    0.96704976922935
P        26.18578522487553    6.52981847690326    3.66802769890772
In       24.82805319798579    7.11042793806365    7.37150467832731
In       21.76107373895103    5.63857674828933    6.22773983471734
P        22.75450015369777    7.92065550424724    6.29542427567464
P        26.25821006486353    8.24926848153779    9.04508112245173
In       22.18020903222842    7.57517639702452    3.05343184540776
In       26.47967871876584   11.63392473595643    3.30483730769293
In       25.71069304867199    8.61038922579452    2.38754016371136
In       23.47224699524508   11.22802362953390    1.50057763796259
P        23.63193652338415    9.57680613660477    3.36735602911907
P        24.18332768870785   12.62691160027467    3.44450997863141
P        26.83779708136455   12.92464322875740    1.18439791448321
P        27.95357585648452    9.62202191204187    2.88817658875706
In       21.33606410269870    8.59617561237480    8.24568040245876
In       25.04045680535720   13.05367424433379    6.66818405725012
In       24.38952439480205    9.89977901940948    8.92282849594220
In       22.33655765568305   12.40208778130636    9.11902834164398
P        22.18250606642674   10.09084980331394   10.05303988430319
P        24.69929977738073   13.19600169070226    9.11784732047325
P        27.16921568843230   14.22044898478815    6.01677553083613
P        24.10710845984162   10.73583138155490    6.60314029895306
In       24.64096909065789   14.87432847350586    2.51946457715191
In       29.42586954689320   18.66603132468269    1.75634582954208
In       27.28782528808424   15.34638883078846    0.68843095933069
In       26.32495980522150   17.73813150612544    2.99863951808455
P        26.99623047271696   15.31964844266248    3.17983957325391
P        28.18413748027011   19.11649632304293    3.87127839067150
P        31.57208316387477   18.80797898492031    3.02055037186895
P        29.56710385795708   16.31110174099994    0.93595791415207
In       24.44580292718082   15.66069697916666    8.82726683504142
In       29.17687865641474   19.88007473005608    7.32287413592952
In       27.29368567340481   16.60505590114988    6.68408565678228
In       25.92077992330328   19.03492661985642    8.85187096512182
P        26.68749771367935   16.68626904493073    9.06936412112859
P        28.01504206070749   20.20040299985749    9.49788103690669
P        31.26937786555537   19.89673004126846    8.66370905656171
P        29.51581051788906   17.65326553647533    6.25140380189747
In       29.29558806064628   21.34238899827476    3.84679542922337
In       30.91555198087737   23.32892841507656   -0.80100699265624
In       32.06505614885927   20.91985179597598    1.76521630624329
In       31.39637125440883   24.11922012983939    3.83197583158463
P        31.73912040591440   21.68026600582888    4.12287188138361
P        31.04385393451759   24.44125479178259    1.40839098859972
P        30.42964712779983   20.98492743930325   -0.12435996366083
In       29.35787145274506   22.29835668924012    9.62691803563547
In       31.95314225737110   22.97367392187508    7.27007251489959
In       33.16591229732433   21.11705898131384    9.69487536844645
In       31.25798785319660   25.24872309372750   10.03715677829788
P        31.60319248368279   22.84670502326100   10.54777201279279
P        30.78441021859056   25.16468808969179    7.59097672067917
P        34.08452970044123   21.73146941533223    7.47495819364401
In       32.88976617443486   26.08106831335172    1.27660726015570
In       32.61161860791516   26.82920129670422    7.28950543798971
In       29.93727502461923    7.28092902365444   -1.05584829644991
In       28.05676096125655    6.37541091940674    2.04672888227299
P        27.76604759915423    7.73716868337638    0.00844298762134
P        31.25913717831580    7.72736497882782    0.91723173358426
In       30.33764871407001    7.57712895503498    5.26010738324492
In       28.07481186671919    7.08236184349014    7.80882096950465
P        27.98805017829445    8.26848624735816    5.61915020480466
P        31.11876175830674    8.37467614974194    7.41854522098339
In       28.30048013012502   10.13699487984748    0.47774074815493
In       32.05452381889056   12.74839814619556    3.51826998039094
In       31.73751663543937   10.11717212286704    1.14843660153536
In       29.16929846452622   12.94783614571885    2.10048849087600
P        30.18264709365477   11.76492034443096    0.17302815887743
P        29.88231397818915   13.63959547311622    4.41506760295879
P        32.71059744478838   13.63524115471836    1.33521013652969
P        31.01746663619403   10.51243938595071    3.45681031664786
In       26.52898453755867   10.09588944437112    6.48183192856393
In       31.05618653840659   13.08781912371346    7.72390980739203
In       29.46715592331552    9.97021697232746    8.28993449733823
In       27.78112983929431   13.56745601181207    8.33797782743814
P        27.27575360399617   11.14716265955341    8.61396501938268
P        29.84031569594628   14.52189556969534    9.33186249059033
P        32.34755642405420   14.61921464233923    6.28900654121165
P        29.66480194346612   11.53131972031508    6.39369295149964
In       30.22422086741786   15.84265315512222    3.27828087089561
In       35.45220064667492   19.27906345313311    1.26023228062674
In       34.57412668560030   14.89354499438227    2.36803094625003
In       32.60309254949166   17.20069271886491    1.39624944429600
P        32.69695151409622   15.99427351908957    3.61678588886375
P        33.61939825741335   18.73668302251834   -0.27652908975764
P        35.76126649492339   17.05130910842784    2.19057746576873
In       30.55099853048917   16.64915775941512    8.27763641498051
In       35.91317891542234   17.78704331238958    6.09889915171101
In       34.17408108839469   15.23505975251691    7.81025655741407
In       32.53891225340883   18.88054050436227    6.77294221934174
P        32.95353975010392   17.23007542488507    8.58791247307368
P        33.96995089261751   18.54147131743426    4.74903783518680
P        36.12077657076669   15.37142734783583    6.33197947930627
In       31.66964641082511   19.43535824201016   -1.58086467501156
In       34.81268546877074   20.83257037523476    5.29405852370425
