240
 energy: -17.527306298417 gnorm: 0.000161021002 xtb: 6.4.1 (afa7bdf)
In       12.52066602859631   11.15414121880004    4.17729057362911
P        14.62401039355192   12.03343479105097    5.15965994830381
P        13.12769591072760    9.67285384099559    2.33772947336327
In       14.04841601058067   10.79384979148382    9.08379602776701
P        15.65469734241821   12.20495604447011   10.39139279987038
P        15.03227107734557    9.85530847641576    7.01484694385921
In       12.33714502843349   13.50967372789158   11.94866998375042
P        14.31934569121569   13.51016597019832   13.34092254631747
In       15.72967469848055   16.90244396426288    3.01578642700263
In       14.41662485322002   13.94592067816589    3.55844086765708
P        14.70442271399756   13.91145813285238    1.15040095294828
P        13.35976286731908   17.18778733016846    3.52867712785530
P        17.08297401354714   18.83887539596179    2.16355204596867
P        16.30558738623386   15.12310876391402    4.69026689868120
In       16.20152897988633   17.19304514081006    7.65600357971123
In       14.89510892579821   14.07403692558416    8.91839280932289
In       12.98115330129670   17.14386966046366    8.09418437683440
P        13.80465482972038   15.12687807618626    6.97696943724575
P        14.65447596381827   18.89213601576175    8.64964187999869
P        18.61721599085799   17.61483304436532    7.22092535650309
P        16.73284055869615   15.63302830219142    9.54732567664237
In       17.72531705090069   18.35698085895371   12.69005281472434
In       15.26636861422569   15.80156554835082   13.13269774252790
In       13.75114515522412   18.92588720781204   12.49909791704824
P        14.96331785479679   17.26485422904538   11.14359981613561
P        15.92678191642735   20.05231453179186   12.73917000026742
P        18.15092465955866   18.05644640766870   10.24448970933506
P        17.15906551313477   16.69454828504696   14.44576328460979
In       20.76277605850493   22.48965073746886   -0.32485631005913
In       17.23856311619778   21.16526150994638    1.28128915106823
P        15.46020080259475   22.54706935294999    2.19619724556497
P        22.77161705969944   21.12054059616299    0.07161712411789
P        19.38084440519855   22.34329773399075    1.70332456874364
In       14.45064248180510   20.40599622431921    6.72015451801671
In       18.43183717011735   22.79742256752151    5.42183769611683
In       17.88280056903193   19.02648640601458    5.29618553312190
P        15.62864807754202   19.82428735316588    4.68056200970935
P        20.80868712784853   22.93684460273915    4.95811637194388
P        18.49181226579067   20.83716602267512    6.89030660834027
In       15.58976777315759   22.02522788446004   11.33479328930540
In       19.17155128960394   23.55162924605000   12.23900715184610
In       18.85946483348679   20.44737556158258   10.23872647836943
P        16.82612008980710   21.49054949989980    9.32283954005095
P        19.34403273440267   21.14678852663315   12.56628389174368
In       16.14993284796240    4.51284662084575    3.64732272905822
P        14.60229321956473    6.04170340916876    2.57669992977386
P        18.21577789956719    5.85817419277042    3.86917681114851
In       17.90629660365958    5.17905016949661    8.15671225293988
P        17.02844985461190    6.76349922300364    6.47028593115255
P        19.98006295262086    6.50332282847319    8.54297705698391
In       16.57768570931951    6.10806492409542   11.85691377631502
P        18.75255160118272    7.07465024589874   11.24162898927127
In       14.18729389320891    8.08096294842925    3.88533662800788
In       19.35139518684304   11.10500204938938    2.26951083197687
In       17.47682340228559    7.83710153356664    2.50946239151618
In       15.95337804609218   10.97801087369319    3.30582812228930
P        16.46404447390997    8.86659727584227    4.55540287249109
P        17.28453529701586   12.38840316844023    1.74930294382291
P        21.04330877847876   12.85429721707491    2.75325843462637
P        19.15358098774070    8.95609541736630    1.05507496575704
In       15.87436370863050    7.94265044228787    8.35895646297224
In       18.99075707426498   11.72502618097969    5.93227862327553
In       19.14483388681428    8.67242193525209    7.66518087649718
In       17.14758532918404   11.44502247192168    8.54074793075367
P        17.64847173417348    9.22428821125802    9.58799165956257
P        16.96469292388798   13.09472812418377    6.64970947331464
P        20.64345402756886   11.90550738289648    7.79015079177104
P        19.35450108675213    9.31898935256729    5.28322931679231
In       14.25684138282570    9.25960453683943   12.91983725175546
In       19.75046051258405   12.86282855619436   11.26275988687103
In       18.77441017996610    9.12731937534775   12.70086080889956
In       16.45241850084380   12.27221975463950   13.62681338311420
P        16.48346657003695   10.09295417845211   12.41020779992508
P        17.56593903076418   13.81072365683614   12.01897427231619
P        21.94558266253847   13.72456928954836   10.43230407308441
P        19.88467487617134   10.41500414436401   10.87099054247789
In       18.03943202224627   14.32324986859796    3.10776372115713
In       22.67766359711448   18.06866204253526    0.95065674326748
In       21.05233049279633   15.03744021365338    1.57251476032034
In       18.46815234256547   17.76140005103571    0.39920328574590
P        19.14479160961079   16.41467182304111    2.35834437541863
P        20.53029618732356   19.12383428622249    0.20031270533235
P        24.94596065952647   19.12962154161601    0.72711585841948
P        22.73701526409899   16.42985842447564    2.83757511262084
In       18.46506050062795   14.44908582527761    8.14364431149528
In       23.25615572721608   16.78607493701732    6.25212019788122
In       21.85947304514397   13.43724846294443    6.20895287629155
In       20.09342535952985   16.21361857204515    5.79465238647431
P        20.90097414664828   15.06097288225032    7.86410250232083
P        21.50928328609596   18.10266244705661    4.95021360327171
P        24.88262721398510   18.61768173667885    5.73111934148840
P        23.69298430610766   14.66899729563695    4.95858529858953
In       18.84366073942734   15.00381424765266   13.79608781382664
In       23.77052938076412   17.83222440716332    9.91853382545482
In       22.94050759508856   15.51391044055200   11.91518952142737
In       19.99493910595492   16.45842187899921   10.83883385788441
P        20.88992180688829   16.23033672169464   13.12791428609826
P        21.33274117144894   18.37940248112854    9.99607174612252
P        25.85571367482819   18.63921077350870   11.05960582275841
P        24.32752849432542   15.41842425961195    9.82329271543602
In       20.34207292436466   20.17804486121593    2.42631067127328
In       26.91896350027277   23.72494746493601    3.55620259555964
In       24.93565177305778   20.04416910624524    3.01234810798788
In       23.13102400196257   22.43777321072420    2.15134284152210
P        22.54316927716730   20.45320407370813    3.55743236024786
P        25.44099400524075   23.15963060099615    1.70927051973453
P        26.46336116123054   21.44793445042370    4.40375576572973
In       20.76487887451127   19.84542824345533    6.58248861824404
In       25.45971277797319   23.09652317318677    7.94516826012703
In       24.12685982648176   20.05199129160410    7.62851084533657
In       22.11521628098820   23.11801981962842    7.03636207545613
P        21.96119887357805   21.05015581547444    8.39585602400942
P        24.22396944491450   22.48160671659061    5.89985083556874
P        25.61985342309544   21.05757617532923    9.36966534691790
In       21.20640886334320   19.51898140992168   12.22412780231039
In       27.21277723460783   22.49616085545193   12.48896720432783
In       24.56883059589640   19.58940341395353   12.99048417732400
In       23.11341898890984   23.01171613954538   11.72715411902729
P        23.19794872067878   20.62986254894838   11.17187242159740
P        26.21161002480900   21.04228543101684   14.14334644051337
In       22.81842421880969    5.02026669472986    1.94194622010506
In       19.31378875151081    5.09146075692593    1.74359263227942
P        19.81403369072637    2.72351285746826    1.94602170272168
P        21.03507435835889    6.47522840993532    2.89679735409729
P        24.31107066725229    6.70517832563414    3.03762683695731
P        23.75016519338150    2.79068830111813    2.18873722694523
In       23.59211983741947    5.71795112470511    7.54878183923494
In       20.58100911376447    2.27068244466865    7.05060825790485
In       20.63842685297334    5.90422631274951    6.22320939589513
P        19.51167175325268    3.82509110615454    5.51552880355046
P        22.78198877983004    6.98086045155842    5.53961649789750
P        25.76968201669479    6.66549300946482    8.32987225088401
P        22.67858439841718    3.39499535677408    7.69721861781787
In       23.94502665179198    5.68916912533570   11.48166797389626
In       21.91208443360010    2.30216210039453   11.28354589916574
In       20.14671752210548    5.22327201643188   12.15519327142759
P        21.10933510152461    4.27538014252649   10.06644248886942
P        22.02794407365034    6.75691519626457   12.63767470182817
P        25.79274941471828    6.46819897426344   12.95959684073937
P        23.90503536820290    3.33785814397494   12.26355779144269
In       21.52781693169512    8.28353896112328    1.27370025676076
In       26.47280313384059   11.94577603213272    1.54372940411556
In       25.08403856125058    9.08290662474789    3.10134709998723
In       22.67307334040520   11.71194996562936    1.25239964156248
P        22.71873010429256    9.79815567126029    2.82762711848939
P        24.42117322025308   12.78544632050812    2.65493798452514
P        27.41041597934338   12.27945659906680    3.82908070557683
P        26.54652207042713    9.49847056083694    1.14666071518400
In       21.80232476954508    9.27618752321063    5.87731107019558
In       27.34527243304908   10.94002846971534    7.51192164098490
In       24.98441525206725    8.71341216200295    7.14350894223057
In       22.79209537491867   11.10418324408885    8.74616248721254
P        22.67661406148231    8.69746562484505    8.15427949729028
P        25.18092491132649   11.72813465575800    8.47809208121604
P        29.17260445545508   12.04974160661862    6.20162430089337
P        27.12355126391860    9.04944381162040    5.85700099559429
In       21.80284184285090    8.90024167247901   11.40376293186877
In       26.41526306793604   11.30743722911423   12.69835986765956
In       24.60996758096247    8.66398041587332   13.12450610611692
In       23.04519124490791   12.40851920316017   12.29584859907959
P        22.64603266814809   10.19234454161693   13.35210570957107
P        25.23898938158044   13.49325048889656   12.83026249641379
P        28.32910321275600   11.47595884476328   11.12539340248916
P        25.08254193334796    9.97737087019942   11.03610977746776
In       24.35755309252567   15.00762114165704    1.51077945947251
In       30.15511452168336   17.58324002346497    3.06924954941678
In       27.61953111335946   14.70386138953890    3.31590375011660
In       26.79011728276668   17.65082425832088    1.57876864330335
P        25.64450560862296   16.22497966781163    3.28550710366773
P        27.87470863248372   18.30455317035547    3.73851015663737
P        31.89326433527223   18.85563017016776    4.18340624025436
P        29.75461934589868   15.46364328813697    4.30774733670658
In       25.05263414461263   13.09974157340863    6.38991306952865
In       29.92106926893322   17.46936839508176    7.78692442695885
In       28.43718836146168   14.23232504182494    7.17450693535979
In       26.69888868362380   17.46167579125787    6.98532468635802
P        26.11215247687247   15.09356498187610    7.42499769233138
P        27.88229856264011   18.12075663983203    9.10488661987528
P        31.19216870608929   19.16736474045689    9.08204070141277
P        30.18017598691338   15.14171052534685    8.68976720213941
In       26.21218242395906   13.99908334451789   10.58922116076013
In       29.23648869781153   15.87211608464566   15.00543160850471
In       29.07010003864652   13.70853471961997   11.96425933592558
In       26.43539873727565   16.55534570717196   12.30320077159259
P        28.14002576882993   15.65528438184937   10.68157057648353
P        26.91402238752713   16.68434320609682   14.72168420486401
P        30.77217538768673   17.72468195814071   14.40998482587538
P        30.19746326319835   13.73650917420294   14.16434030674793
In       28.33320694440970   20.61910488888230    2.94339208342051
P        30.34083762822108   21.95188775773077    3.30682953979407
In       27.75832762716966   20.46570758585174    8.23447726088653
In       31.12706125550443   21.00916084826235    7.46569320101478
P        29.01680443556802   21.13356117568266    6.23346910964134
In       27.65113984002080   19.01656897062801   14.28705939086878
In       30.90614045610469   19.75284135880295   13.01487354472867
P        28.72467568785157   19.17818045903716   12.07897892632443
In       29.28739546727126    4.92613600687807    3.04964213877608
In       25.88417726968819    6.30271367578902    1.14108646443611
P        26.57758861138664    4.20788320620621    0.11948738002145
P        27.26798567930064    6.33688447857705    3.24774244211496
P        31.14622636000448    6.27015881021268    2.25842058593994
In       24.15993895517209    2.63898345803112    5.87378744472134
In       30.87455088533538    4.38043845016890    6.89029081242334
In       26.83611126668155    5.46382235648631    6.44140422917051
P        25.57774119124642    4.24698186856004    4.71146402040159
P        28.93633452876578    5.59454092967493    7.76544000248945
P        31.77480282294928    6.49645234191186    6.13388548495015
In       25.67800284236413    2.32537271880028   10.91357137528393
In       31.04611441687570    6.78041480709541   11.93069405953834
In       27.55932641490673    5.27846868598248   11.68490516941293
P        27.00521970180171    3.94473530150795    9.67898231874347
P        29.04732117672381    6.92457999914089   10.54552259806525
In       28.44917114847507    8.24159573490957    2.14165766731645
In       33.61206562003285   11.83725022347186    2.65108599187206
In       31.72705135256076    8.56608632339500    2.92890071714555
In       29.59230285340686   11.27880517944950    3.12564885661096
P        29.62825464303353    9.01594703149576    4.21589676107766
P        31.66435936972356   12.28321903657620    4.11134230802027
P        32.26619319587458   10.31968293776712    1.29655821793969
In       28.84920956645726    8.05432270988954    7.36629476239178
In       34.04512769729150   11.17255973373641    6.91374742178743
In       32.00584181732318    8.35863458666917    7.71247332745241
In       30.64606507957763   11.71741016661532    8.18635292799190
P        30.15005695337939    9.42339433575975    9.02634897993590
P        32.92391497830373   12.69183821201794    8.48271467918503
P        32.05234398990829   10.09789822344772    5.93028639754301
In       27.10083271699243    8.50069971926172   10.79560009213103
In       33.52133666794603    9.94232163855003   11.17721933674451
In       27.55802258035657    8.66039036666509   15.50188702406257
In       29.74884826012095   10.35505610093115   12.86462168893353
P        28.01340178062365    8.56580461149694   13.10233653020419
P        31.44585191413019   11.24421896114296   11.26258946071465
In       31.33153512921528   14.35527283228947    2.74487543229262
P        33.33368014357423   15.48797392088604    3.54184567682425
In       32.05405519117819   14.60778800771790    7.14498662007046
In       33.22790280807194   17.79621468061535    8.98817044197769
P        33.22414520581281   16.73983609488203    6.80480001404663
In       32.20682368222286   12.96225422067274   12.91445206734619
In       31.63270382822786   16.26932848139668   12.61328176518022
P        32.31712725814735   14.55051109721191   11.01788604130964
