80
 energy: -5.704889877864 gnorm: 0.000344196036 xtb: 6.4.1 (afa7bdf)
In        4.66217463748995    6.98852293472689    4.70576966141769
P         3.64081917674555    7.34924234597725    2.53668892203121
P         5.61455780405842    4.81991044030054    5.39716002723285
In        5.51516426389968    5.19862078344677   10.64939147898838
P         4.34209463385028    5.11617380755262    8.49087058618471
P         6.96604221121390    3.24803456942918   11.02666090397628
In        4.76747181741329   11.33873924499745    4.04740085743459
In        5.00298693447355   15.93176316385027    3.78297839263785
In        3.49562590831281   13.31734534317580    1.09540922091587
P         3.79129856531490   11.01903595081068    1.82245587169085
P         4.29998203629928   15.57765855224635    1.46697528292587
P         5.74367179836496   13.62098086535783    4.33400503850867
P         5.76737534627127    9.21548871563897    4.91480526235421
In        3.32038095584446    7.31689420251407    8.21975209836224
In        4.94955471502068    9.84119067195067   10.16516776311330
In        4.81199287358240   14.31342154691979    9.55454520711234
In        3.00859625016705   11.66753501322797    7.39756608402791
P         4.24779450558250    9.57100584140963    7.79494464814757
P         4.04261326932427   13.87058736173938    7.26158421884410
P         5.82624432306167   12.17074245755559   10.31598719795462
P         5.97324314297309    7.64222401920567   10.72750118302761
In        4.97043554914771   20.13034049835105    3.77584708848798
P         6.26333245440657   18.07302474522717    3.95393402979350
P         5.74048343179731   16.58432284052939    9.75664824765434
In        8.14307886936572    6.87966737707629    4.93962342531055
In        6.49983063535162    4.49120357816375    3.14697036130904
P         7.68410401404464    6.56590728401685    2.52142542869097
P         9.17223061966228    4.72075184182381    5.54383038517278
In        9.00429919443901    5.82001159529865   10.47071372231880
In        7.55083604372942    2.85143034932835    8.70255316261034
P         7.88662528397795    5.25813044007555    8.32788503261533
P        10.61206408569420    3.96643342877273   10.52146941127757
In        6.71716200602875    8.86481074366988    2.63484081674904
In        8.05507576198046   11.39646386509956    4.49211142050261
In        8.44258929582268   15.72907506578348    4.06955873069021
In        6.81851185588757   13.44939730469871    2.10315560987781
P         7.64401410379433   11.10317930602533    2.06808159310632
P         8.13273059889770   15.50640567310130    1.62742690037200
P         9.28873043083001   13.52257860067755    4.80657666656544
P         9.05874021827442    9.19417312960351    5.02777402851828
In        6.64093004866643    7.39592615629203    8.35953737191114
In        8.38432324200560    9.81303645034617   10.20496480383312
In        8.31317399338657   14.48251894224956    9.70227266525680
In        6.59357931535992   11.93742980809192    7.97758681925451
P         7.54983465517582    9.64730744376054    7.86474397302141
P         7.49527363314430   14.17629372266108    7.37987100602330
P         9.05582938717306   12.20367452680005   10.37668554627966
P        10.11217430633819    8.04263866994079   10.38200946956103
In        7.32868794851859   17.85367949215804    1.71924858701069
In        9.07885380062040   20.39832605081363    3.75523527438163
P         8.53890135099689   19.97072596785177    1.43236062470923
P         9.42251825003177   18.01161207700282    4.25242316537498
In        6.61195556067834   16.50188301007953    7.46614831292259
In        8.58206642295323   19.14454177801381    8.99748658777401
P         7.61040278007203   18.66451292254384    6.81424569516133
P         9.13582331232884   16.82646637480438    9.60261822172539
In       13.17384864899402    6.73611387664584    3.30734312356498
In       10.21760252525044    4.22312606506441    3.40550558650110
P        10.77248065592323    6.53454590976622    2.78200614576133
In       13.74889843858259    6.54913317730737    8.33881465250874
In       11.29924395150205    3.67792026010543    8.22174596666200
P        11.70740812548835    5.87225927134129    7.18959589850486
In       10.05354473752880    8.90680451808874    2.77002292302400
In       12.88722621334309   10.43172558716013    3.93777911673586
In       12.98156390430477   14.31015679842112    4.42079861071430
In       10.33268715647745   13.07903945752440    2.59580007369672
P        11.36100064177606   10.88718158155816    2.05501013815507
P        11.69657318959367   15.15055290227638    2.50854966897659
P        12.15719138345905   12.24791531879933    5.47315385037590
P        12.41938417458056    8.26490006606314    5.06501797906655
In       10.32179111513684    7.81636155860172    7.93764490388307
In       12.98988308002976   10.45341373317862    8.56970431920223
In       12.13423268987493   14.19978979756524    9.74369131960240
In        9.90345130170885   11.85730083067024    8.07893898115720
P        11.15685801401798    9.98281581674337    6.95421817460485
P        10.96075768263551   14.05517848701427    7.58740524160094
P        12.29469668518569   11.86334641738998   10.42197788990605
In       10.78967869242949   17.42922784662235    2.27961091568686
In       10.07408655460750   16.36502421699618    7.35659667087296
P        11.87732280758573   17.95768761228902    6.99518375658036
