36
 energy: -2.124523429297 gnorm: 0.000531000729 xtb: 6.4.1 (afa7bdf)
P         6.72877342154521    4.42477700366140    7.08789980919935
P         6.98963317157676    1.68826021508035    4.01269923515667
P         7.06822167167452    0.59991955663236   11.68809000583253
In       10.06265576992501    3.16446138660720    2.50702700307602
In        9.87771990523729   -0.22603218976953    5.57102601986219
In        8.17383980558756    3.16387767737499    5.55630640457705
P         9.30019446984515    1.57958981282469    7.08714401615968
P         9.34003271791447    4.82021386772910    4.13472857414322
P        11.22268458005644    4.74095231736734    6.99991236091215
P        10.87383160158137    1.24506140445859    3.84832763310472
In        6.21146025901398    0.62921650012467    9.44664443878112
In        9.04979955586014    2.99945502954897   10.33084739918914
In       10.21800177449395   -0.07166879894340   13.71492234094795
In        7.63135344573545    2.27923670559569   13.37966934431965
P         9.09035940903870    1.49839264733339   15.19561871671003
P         8.00723873642113    4.33251425461382   12.08715195653870
P        10.37717781210825    4.77193765307618   14.80464315682669
P        10.29844039366749    1.26055997765843   11.61154473602168
In       11.50353259318537   -0.34273326871960    2.09230999099105
In       13.91965581838131    2.72157841138845    2.28776756689358
In       13.89386589917607   -0.33798149118454    5.25578495298761
In       11.85139583092480    2.94479522913401    5.43558249371549
P        12.84529198601675    1.16387374606805    6.83588895400648
P        12.93195465420465    4.38531208099875    3.74315224714901
P        15.28898737021863    4.10983679942320    7.77954044587886
P        15.07750974996035    1.37344253433540    3.97038779111267
In       10.79242418549891   -0.53602672193095   10.00338877602458
In       12.45706394940429    2.93174377002751    9.81784647116078
In       13.78722367763748    0.31365460446419   12.53113875952355
In       11.07851533955471    3.18373954457966   13.06227194548113
P        12.87963680289619    1.88026715657419   14.13816584253330
P        11.68539254647037    4.74797561842990   11.24146778735641
P        14.49102495679752    1.81224235299243   10.69250818223517
In       15.68320123763074    3.00524787000630    5.68680686938349
In       15.95063895014783    0.44489705524577    9.28621318954664
In       15.44054095055450    3.71326468718515   11.90701458269456
