80
 energy: -5.464978726130 gnorm: 0.000086582525 xtb: 6.4.1 (afa7bdf)
In        2.82745762866366    7.52123540226695    4.66737749884012
P         4.07618963640712    5.54645691360569    5.21928368970458
In        2.87924823846338    6.72081043626468   10.92225268027514
In        1.47320480133490    3.97112646691871    8.47446936031817
P         2.02095427724462    6.32191562984707    8.65174418464260
P         4.34803381098177    4.76918754606872   10.93080428731183
In        5.69666089616739    7.39066993682243   17.02317504771847
P         3.70343126030762    6.85441258975284   15.75025612730653
In        2.83760015695502    8.93360887391600    0.81863653501294
In        3.10794794635012   11.44518519091747    3.91431124753135
In        3.48132734098246   14.95601101037274    4.02447317394065
In        4.34031554230930   13.10238779479929    0.29184032101094
P         3.69738886095691   11.08954243034967    1.53971755099196
P         4.19082960068284   15.08001365148736    1.68957362563051
P         4.55649824044391   13.02839613735940    5.19914594119773
P         4.20309727495365    9.52689282238836    5.07878017539256
In        0.75103388788494    8.25430113213581    7.85330145396341
In        2.62644148734045   10.36605279353410    9.97846126978885
In        2.49631909229317   13.88339504930951   10.04728278256143
In        0.96077385848990   12.12116239249657    6.98381498554126
P         2.31402661431759   10.13805620357142    7.52235893931198
P         2.41593896009859   14.01108947663147    7.57265453588361
P         4.16629047858512   12.17047687921822   10.78135273937866
P         4.32373853738199    8.72179106762954   10.75064096003458
In        2.28013564083910    8.33569850354817   14.47222356356536
In        4.70375190533088   10.83869954764328   16.56399304605489
In        3.58065589404536   14.43481108395658   16.51973436795490
In        1.82973678917823   12.58453894165435   13.84501824419815
P         3.06551283073364   10.64786565320982   14.71389696394784
P         2.85424838453358   14.79955118379698   14.16503100220287
P         5.62813113509974   13.11209658940820   16.11005776501717
P         6.69721719794705    9.42494462792829   16.01470302052331
In        3.63360628583862   18.58541498278205    4.54782555481715
P         4.71728137263013   16.58762625367204    5.47405352079232
In        1.40289299079041   16.24475887529373    7.41843558484536
In        2.94213247457262   17.75883663902178   10.82707327462467
P         2.44956407418196   18.14861005426056    8.48605631887887
P         4.10090985931140   15.58532986364391   10.91137622903680
In        1.80835402083674   16.96930986706110   14.53073219417911
P         4.98879351134840   16.44175284540902   16.54903291230439
In        8.57603376229626    6.71355446812302    4.36509506371982
P         6.70408084962625    6.76816778897417    2.82203443120417
In        8.12503215660599    7.05871704181906    8.96995736165112
In        5.28491373201234    4.61504005673108    8.71155872389532
P         6.26824021145578    6.46164705282008    7.41564381010223
P         8.52994545766226    5.08215100096683   10.33337514899621
In        6.56627845179060    5.05165596148831   13.98344351686173
P         6.82643387238975    6.94026054781388   12.49796997434321
In        5.71866805925123    8.99120707306716    3.17891217650913
In        8.66451455567077   10.35027828009295    4.58086050050817
In        9.07231762585270   13.98252031740592    4.70454055253651
In        6.12022108796775   12.66780833045785    3.28209657973755
P         7.38536442131772   10.68186207148046    2.49712553129315
P         7.70891916996104   14.48223363458615    2.70298749463006
P         7.75426556909623   12.25240252090411    5.91107922416354
P         7.58317712265504    8.45452288850613    5.79156918146840
In        5.00668901911750    8.40813578539994    8.38752541545734
In        7.92160952774512   10.90128187139357    9.03530191924883
In        7.94656292118225   14.82037587895191    9.23686082625421
In        5.01290938187926   12.29049185811636    8.44158849984602
P         6.17550058601241   10.35902072970549    7.32085087712610
P         6.33020727568436   14.18338009694546    7.43560358688625
P         7.34331512491012   12.79199716662744   10.56198430524266
P         7.46435889238700    8.91726462008356   10.47825980546436
In        5.77200707706420    8.81395415487655   13.77645700026168
In        8.63508250811853   10.05926736275928   13.44519671266972
In        8.50061185090031   13.96585473877734   13.90420613909643
In        5.44984926380271   12.62592900313903   13.70748782639771
P         6.47674498842938   10.77387392158350   12.34310053834078
P         6.47931781531966   14.61627953479042   12.57504925123501
P         8.08606903751899   11.84173941963786   15.07667051887772
P         9.21404914857374    8.09571090903355   14.77204974386625
In        6.58572212269099   16.32561883000735    3.86447770489919
P         9.22180903541135   16.03289667822587    6.00798456203021
In        5.00789515933775   15.94910773734510    8.62820674760247
In        7.79097366510910   18.57592173282913    9.36936528676152
P         6.29748392788314   17.80931238526439    7.61727462230429
P         7.32430702040942   16.65158345231579   10.80865624383208
In        5.73966108875095   16.35817038848497   14.22319241407140
P         6.12228465946178   18.50357936878155   13.12184750422409
