82
 energy: -4.544844541344 gnorm: 0.000724553535 xtb: 6.4.1 (afa7bdf)
In        2.84780289423519    6.34039370898961   10.38030948066517
In        0.72834510074406    5.71946712261561   13.97124517865728
P         1.58359759454954    5.40498552473310   16.18743150251127
P         1.26838538350927    7.19498136275593   12.05270298609322
P         4.43607660095488    6.55246451102263   13.88130829705998
In        4.45972533306215    7.57116900939630   17.58609194565544
In        2.64799996128369    5.29487730919239   20.35625452000990
P         2.57357779866792    7.42671460780692   19.13994189693646
P         5.21046392211032    7.66499882797515   22.17526482707101
P         0.32399681035445    8.80547921320745    7.07610464584951
P         5.98578784215079   11.32585909858926    9.53949138455489
In       -0.87362830322055    7.54342096338054   10.91136011576858
In        2.03121995153364   10.05339842384016   10.60494690009863
In        2.92882416849055    8.44460668196639   13.48500532617718
In       -0.63758189740289    9.60769357053999   14.26389726527185
P         1.48196591615793    9.17007870525420   15.35795216283489
P         0.47753160399492   10.77983076431952   12.39439947134017
P         4.39417645018681   11.55228839439581   15.11862007645763
P         4.16304586256238    9.74691437432387   11.76529050327465
In        0.19808646395473    7.82463575279524   18.70465215747736
In        2.48326111784838   10.89678702479549   18.37387684701005
In        3.42269852446632    8.87421444986648   21.02136730302491
In       -0.51129091281502   10.32225098629647   21.67128478338069
P         1.46044471675300    9.17682540136482   22.47145957342723
P         0.66938562440197   11.60423161701507   19.91172085951764
P         4.57901890779747   11.96124111779337   22.67862717872979
P         4.57197345623224   10.51041499825000   19.56314433309884
In        4.03137860855522   10.26541367396898   26.17958726405678
P         2.43788732530214   11.61465995353619   24.95448508802678
In        4.40017049852809   10.93925432777790    7.77767554695792
In        0.61298822793748   13.72169106429801    7.96367442679832
P         2.33567984140285   12.15112416404670    7.42522398557543
P         5.00143175082269   14.43853314406648    8.93987421895709
In       -0.79287732655820   12.76623128239096   11.74905498962404
In        2.57319927304710   15.21829422443732   11.70362701204687
In        2.40806295192363   11.78818163066131   13.67432597365975
In       -0.04730962580143   15.07865260146966   14.90052867840681
P         0.70952071369909   12.78952861622931   15.15797270317521
P         1.09190875222472   16.49159047521483   13.21866451915545
P         3.76662517142863   14.83816776995843   15.09007342351514
P         3.37909225171243   12.92834950563090   11.70705307158464
In       -1.13952594586145   12.26919311530317   18.40101230069771
In        2.01382460664256   14.82196715796505   18.34220062272055
In        2.48158333040278   12.44998653579911   21.45910221993408
In       -0.75960508068318   14.53148466010168   21.71731442090608
P         0.77570175432015   13.25377201359598   23.09591448464555
P         0.49418330135967   15.83024303422186   20.01426508542074
P         3.54245372833707   15.43356206701896   23.72938620679120
P         3.68744409628920   13.69301358137064   19.68207038961560
In        0.54290941618651   11.52813779622141   26.46016986104422
In        2.55555210802598   15.39921258889153   27.00001314262922
P         0.81544558301255   16.01826802666725   25.41382483394852
P         4.77000400998973   14.52760293277628   26.67150632841230
In        4.20644378181157   16.62949535640680    8.37666093931968
P         2.15767531278897   17.82667431297837    8.04439866166984
In       -0.69322706017078   17.27654476613032   11.73356061638236
In        2.95760924275372   19.16840139743588   11.62182181821500
In        2.94339776338566   17.12547298269335   14.81951838394476
In        0.03961880169919   19.50132748626427   14.86989759913840
P         1.41103711367813   18.23618673426378   16.41519606838616
P         1.31023962075350   20.42045654468651   12.96709308718516
P         4.31759483391153   20.78986485910594   15.87594793238191
P         4.48424355262903   18.22658742208393   13.24019930393366
In       -1.31371900923857   16.93710358294678   18.76492980746438
In        4.37383743768265   18.33438218770388   18.53343195410276
In        2.40010220974038   16.15000717399971   21.66816347381215
In        0.96104381414539   19.08348857732759   20.74747855450759
P         0.89616040368774   17.76652412542106   22.79809065988815
P         2.48061007977186   19.87102281227015   18.93450205948196
P         4.55669803234585   19.50600661204047   22.50608190869093
P         4.41016641626273   16.80524086446618   20.39748161966197
In       -1.32667899974698   16.43627389329935   26.41507139963506
In        2.26935494599355   20.07250860508040   25.92768349119586
In        0.07536072287160   21.97591384386603   11.54770218661437
In        3.02808455494159   21.86047031114898   14.10201162203307
P         1.65448549177876   23.77575115877901   14.74622271218153
P         4.53026086807752   22.48515926155645   12.28216488786614
In        1.16114655335501   21.74798200740064   18.06528131585828
In        4.53951644413668   24.15752366023060   18.11876391717878
In        3.63473354667570   21.05385578961901   20.85775581440991
P         1.89435686452270   22.45370216823846   21.84317064258649
P         5.21667394492491   22.24289953645193   19.38392524201927
