30
 energy: -1.863279075028 gnorm: 0.000442431589 xtb: 6.4.1 (afa7bdf)
In        6.50193323588673    4.05396063797302    2.67373696421301
P         4.58265942313898    5.23069736887475    3.66160510698718
P         7.34479143098697    5.52322766028465    0.91067322929648
P         7.86107840013109    2.87289486360021    4.31059031977165
In        5.33564130265031    4.85589423827554    8.16087415339777
In        5.74976330672198    1.38754567365246    7.25168856532730
In        2.68766358544139    3.33950422714938    6.34143269594573
P         4.98978440350772    2.99578933612635    5.55406692581309
P         2.97731069336584    5.40398764087619    7.63424679161952
P         6.99143207080472    5.60226130615260    6.49228339665327
P         6.75835094584447    2.95482076314164    8.82622525987241
In        6.81349337879865    3.61296743190637   12.33768218056958
In        2.88632687685165    3.24784077653002   11.17277725731693
P         4.55415846041183    4.55812858890602   12.34012771033582
P         7.93651854642752    5.07174893709711   10.73309356124725
In        4.40359471070140    7.24031734227767    2.30012515397392
In        8.06620573754858    7.15538818323803    2.57939767651172
P         6.15830504641294    8.26306608887116    3.63726241449778
P         9.37186540479829    6.13078665439633    4.34159663548511
In        3.37009559947679    7.64224144520766    6.72934812225343
In       10.17862658327467    8.61939281303567    7.16150035667642
In        6.96868522383290    7.61672320468045    7.91295921543703
In        6.50395790060294   10.74662068147012    6.34387155218275
P         5.07469836488867    9.17912191383104    7.57297227753929
P         8.49511942257680    9.53360993964865    5.65928179161445
P         9.22017718718729    7.03761406799980    8.75405117645241
In        4.94014832323650    6.91718603947375   11.82770578476683
In        8.72779869437968    6.79453809877242   12.27250288078557
In        7.23283942209206   10.42028621392577   10.97505035361471
P         6.85940812400600    8.37888472380697   12.22137048983632
