48
 energy: -3.050591643304 gnorm: 0.000509437098 xtb: 6.4.1 (afa7bdf)
In        4.80572889408623    2.81235558955896   10.15606685134324
In        4.42693775731503    6.65471209573625    9.28002161943773
P         4.03557254563116    2.47827810055037    7.88633485824509
P         2.34640653648594    5.63754116005820    9.90483686457387
P         5.99452089488380    4.99601807083311   10.19033733985317
P         5.49724035812959    0.75808457314695   11.32669911603532
In        4.77982185316797    2.06614651974499   16.34335199048382
In        4.74165950334092    6.46849481762636   15.29770366930595
In        2.83487772565886    3.80299102318253   13.40718192745259
P         3.86652649917630    1.71141507188995   14.08994784533730
P         3.85240359879945    5.98305586969239   13.08116184900127
P         5.68572231558628    4.37612784211075   16.19404678038756
P         5.81196570859690   -0.05671065467484   17.04058168545269
In       10.17524195899312    2.94948932734022    4.77428242417146
In       10.88637942023285    7.56039627655622    4.63579446642209
P        10.99683833046904    5.19309398411450    5.01803811465294
In        6.57867110168749    0.01746094582965    9.26416826817203
In        8.20391233460560    2.64862114094989   10.75352230814072
In        8.84945604828854    7.25597387413633    9.68046230313221
In        7.07474589384081    4.32729107104910    8.04691293435998
P         7.81662029928980    1.97255146886322    8.39821961098542
P         8.14488129739947    6.47322453937197    7.49479914753048
P         9.11256997516615    4.97062972279691   10.56424625769223
P         8.91362935107729    0.49909100074356   11.74572503067250
In        6.70296202395137   -0.79878923543802   14.90587941825485
In        8.16035801213268    2.15468371832275   16.37309784183434
In        8.23608394538943    6.58412853580521   15.20851959936126
In        6.42228574090544    3.85339992458544   13.89074990890803
P         7.18847064510869    1.50597941190988   14.18056550436827
P         7.32355460128182    5.97571333906000   13.02733590611491
P         9.08873844374343    4.43311648094722   16.05058135460826
P         9.66786471804350    0.32032884055441   17.01801179904932
In        8.14087439052536    3.18715013535313   19.97602482062661
P         8.35954455154549    0.79803958864537   19.97014930902351
P         8.18079278418736    5.37107601782529   18.98405812893392
In       10.18788629907950   -0.39487697972586    9.87748237521981
In       13.17751780142700    2.10963980003115    9.93370954348544
In       13.06143361089721    5.80774955151942   10.12501254585361
In       10.31699924993955    4.15264572216357    8.55206224671942
P        10.89875409584726    1.80514645139878    9.05255625363489
P        12.19225249680917    5.58651456822960    7.87235567271073
P        12.30776050352964    3.86354410759458   11.41887165137378
In       10.67623567650837   -0.07712863475442   14.85367259040448
In       13.28280331001673    2.63515283631871   14.70265365990939
In       12.05656869067180    6.63771436970548   15.18674330171950
In        9.83776203311607    3.72133065663389   13.79961164333130
P        11.38741768784834    1.78898204843282   13.40677205583271
P        10.85692848554179    5.90402531365938   13.23699960587121
