244
 energy: -16.091728406716 gnorm: 0.000715283780 xtb: 6.4.1 (afa7bdf)
P         7.08588866580887    4.96717284157536   16.21298448834941
P         7.56010929663645    2.95801743916513   13.01573753938129
In        6.87947081959395    2.66270098818771   19.13164489143765
P         5.61844616959156    4.73679466225540   19.24366243876118
P         9.09711236133796    5.54235963428392   21.93437866814035
P         9.20948607439355    1.96627640405195   19.44809205244256
In        4.07277274671856    7.42096520359243   12.12238681570172
In        5.05068074396423    4.79029312343944   14.86236008345160
P         3.35899216440238    6.13712552485564   15.96721425390797
P         3.87650956695705    9.76167347034342   11.51006266125625
P         5.64468497637966    9.22359213426690   14.69480226106518
P         5.84226692297497    5.79955769914082   12.72932338924958
In        5.90374364445250    8.01546108585418   17.85274311801647
In        6.89925787610266    5.97288748909945   20.93862738779100
P         4.17678084185701    7.47332860476837   19.48233923785489
P         7.13495407946303    8.49718279530035   22.89637793507152
P         7.84566173406408    7.65456816677358   19.32986290683251
In        4.45068662301839   11.04497328900715   13.54873887589450
P         2.77481891659013   12.09298654959961   14.99287417997142
P         5.94760089178141   14.18452646728645   16.12018539199767
P         6.08605589801173   12.63473662782645   12.54604364229277
In        3.99423821169612   11.20325926955573   18.78107735159146
In        5.15705475481423    8.60878554093890   21.43610554731204
P         6.01167667792849   10.40924690417699   19.93440984170390
P         9.61605750282068    6.60702462040354    7.23218798243011
In        7.80345271511437    1.88708274475343   10.88504421921279
In       11.25439116961260    4.18951308253111   11.47921004524471
In       10.41934941748648    1.14839912260454   14.44232935887926
In        8.71712797317733    4.63996467231812   14.38056768696358
P        10.05628190493972    3.11645310721584   15.81056724272167
P         9.65982152766383    5.85482628500015   12.39495399562994
P        12.19885141330728    5.48548488302216   15.10256034512218
P        11.82883922105067    2.05210209217079   12.61138381451125
In        9.31852965702918   -0.11502782603020   18.20399069297959
In       12.37496893376026    2.77811303085845   18.32467382892684
In       11.15277663392717    0.09260100200096   21.99388182490899
In       10.27612317558151    3.57612426734574   21.01596726462670
P        10.53448727944882    2.18984314197602   23.05207351860535
P        11.48240371473067    4.89644594942579   19.22405265809703
P        12.51972043566996    4.88001117422352   22.80799660866102
P        12.48825330457228    1.08917488132507   20.15383162619591
In        8.32809632733833    4.67028289566292   25.67793060744722
In        7.26308652781586    7.23184015252780    7.27250466398576
P         5.83247702662208    8.17497729297906    8.95139584997023
P        10.27947147572746   10.40275746693314    6.55479555457478
In        7.62015402923635    5.61790375159395   11.00908051187400
In       10.20657747144197    8.53369126751373   10.27315302883194
In       11.02819840596643    7.30043778486722   13.90804321688432
In        7.26713751708604    7.53563839233172   13.91022096771360
P         9.17031234910896    7.83625719888287   15.47806542487096
P         8.42231163877501    8.63870171323607   11.97988879053306
P        11.73482155865429   10.36106642973180   14.93204252574788
P        12.07332860378987    8.40089870058754   11.88779245617182
In        9.26079955615210    5.75926515173530   18.56313201162122
In       11.34011296201605    8.36675178634878   18.12233498915135
In       12.29659551843518    6.50241101495073   20.93882580058865
In        8.80090447249198    9.06819865376600   21.16031094347956
P        11.05931551199404    8.40543857633688   21.91405424570050
P        10.00975717436539   10.13121656561999   19.21607136262947
P        13.21821878627245   11.13284858016906   22.01363711957062
P        13.51996871150126    7.71031145725480   19.08162431458022
In        4.09058367626925    5.02510046102407   23.76916165681638
In        9.46082232047272   10.42973166959131   25.33014574291940
P        11.74876560672459    9.66759460381921   24.90665865085402
In        8.08274259959498   10.99127872415830    7.39938489619652
P         6.03969531888881   12.03019733213294    8.10079055276206
P         9.65577266557516   17.68731707312602   10.26994678305755
In        7.09892354054529   10.68160906013493   11.46134853761770
In        8.69815491967986   13.95356445441314   10.68644883718514
In        9.77231152030671   10.20970191404697   13.44104624774131
In        7.52104218007878   13.57563813390230   14.34405173753404
P         8.22289492547215   11.30164981255351   14.99093332038720
P         8.40766120517080   15.25350304339681   12.73349205737338
P        10.46853826673001   14.82332359131211   16.01758863728564
P         9.90008365876215   12.29371677579138   12.06449241278533
In        7.82093992151847   10.83242519881655   18.29297390129803
In        8.81458897185797   13.95354099554446   19.08752363446939
In       11.08760874577452   11.69236653412408   20.85703739558835
In        6.90931685718525   11.99810478996988   21.63380176608547
P         9.22132587274914   12.43122347579155   22.27794662225340
P         6.60467264534026   13.86766613695263   20.08589413399306
P        10.79979607125329   15.93723738797012   21.45504490890709
P        11.08655227832680   13.04024035274347   18.72684201875513
In        4.96187425717781   10.98706724973691   25.31267641542710
In       10.76133823603299   14.56499039466418   25.33140011512282
P        11.99061547063583   13.05530033551761   23.89533281144895
In        9.58692605846342    4.19879766911136    7.63984050880598
P        11.54965119019969    2.80999379020897    7.71595329263241
P        12.51805976536008    5.94196745224160    7.27257370110321
In       11.71555261191070    0.32544958594299   10.86972812754065
In       14.56830445933519    2.81372182739715   10.79464192806164
In       14.07240687325215   -0.35192040242226   14.11510850055625
In       13.23441768985884    3.44096246425591   14.17570477480103
P        13.97908520132846    1.55795824916561   15.62318050162349
P        14.38817608901741    4.72678286694616   12.34666859416956
P        16.10680762937226    4.39767072593020   15.50178211389655
P        15.16186497593525    0.94453816192048   12.31128329412932
In       13.21252256613641   -0.84077877958733   18.80417162294224
In       15.88844076802035    2.38086459441601   18.79874358448859
In       15.07683344195125   -0.30543584314461   22.20973797898346
In       13.45014098847865    2.89138557185794   21.64052022167589
P        14.19000095170125    1.51385061006147   23.55381593181361
P        14.73638923512692    4.23454896847488   19.97209154268986
P        16.13650347005965    4.45476248706032   23.53234937805968
P        16.56600458663422    0.67967081133593   20.48153133719385
In       10.55194504584917   -0.02477834686696   26.45045233650100
In       12.99837668990256    3.58155812718043   26.39301947450208
P        13.54016590587499    5.83695703620677   25.63943803523803
In       12.90371439371976    8.37110248052787    6.99615686424529
In       12.05697225208166   11.50589194822235    7.85374040308466
P        13.36122834610199    9.72163971571049    9.02046869537277
P        12.64630456740546   13.18314665092423    6.14548101046192
P        15.34971498404914   12.59050073943360    8.78100414919962
P        13.48526154686102   10.07344563674545    5.33112971616664
In       13.60658710298802    6.66090731737503   11.00496577111331
In       16.06021064735657    9.40904384911626   10.63868994477151
In       15.37045500176895    6.27853221531342   14.05025469039371
In       13.59347762268522    9.64744775936240   13.45402396677597
P        14.31566555544482    8.14522628080002   15.28138832408450
P        14.49392359301879   11.08902789181288   11.57229466963700
P        16.23974194985264   11.02212928547556   15.36128837808776
P        16.53397727504815    7.57133588523228   12.23795796541908
In       14.40910528316514    5.68659831288631   17.99281545436864
In       16.48130593019204    8.81687429053982   18.02132751996914
In       15.45291871907678    5.93782270889900   21.66719694672203
In       14.34025615534755    9.29259094869156   20.81444880297672
P        14.32795327613576    7.82993271841309   22.83760296837126
P        15.09964901421811   10.68816904415900   18.85512061725130
P        16.32492158675937   10.87320446655950   22.63924453477627
P        16.67312834518156    7.23437291282488   19.91591682115629
In       11.54917005448232    7.25778580528219   25.36966101487968
In       16.45950320599263    9.67724944138125   26.03050436858422
In       14.51472644289261    6.84333406836638   27.68379036875124
In       12.79990980583035   10.51231517907376   26.97083522491967
P        14.95980503992298   11.55770530981695   26.46887474530161
P        16.18213568882753    7.23874941295326   25.89927142198904
In       14.00888074241507   14.39880262925476    7.78192895938959
P        12.18589781165397   15.72008836679679    8.70776375945256
P        16.99772337260032   16.44574000956650    9.27462107043272
In       12.23426582014716   12.05166358596642   11.25485229483857
In       13.96693081986086   15.20306477231796   11.68378766602085
In       15.49999475820957   12.41318414663900   13.45744385105268
In       10.98294729446051   13.58469233129606   13.95973160542672
P        13.37755373831261   13.17752114647120   14.44807689409020
P        11.60672958087278   15.28128375713747   12.27224873432617
P        14.79586417427058   16.62628287417919   14.85330657681422
P        16.20999398914341   14.16932328725431   11.78860932423012
In       12.87659377794795   11.44161099258734   18.05643335831681
In       14.96655015622358   14.03060345441880   17.48937261271080
In       15.95909154888022   12.26241907451530   20.60680493677054
In       12.31833807784145   14.94144953580805   19.81935965783148
P        14.26065630100235   14.00075907979500   21.00460530597563
P        13.30553778445470   15.78099669020660   17.71295707984979
P        15.75727816238023   17.05513682369232   20.07121096954749
P        17.03572949319958   13.21609535494082   18.54266416274082
In       14.24097078643118   13.23441463939236   24.83314409739843
In       14.95984991208874   18.01767507919189   24.19465132808879
P        16.43873835283825   16.29709145878115   23.37988055895852
In       14.84711910809994    5.21863051160744    7.29151058300395
P        16.58470262466253    3.57665751203703    7.50728738057131
P        19.06997105656066    6.77816063480819    7.36157580349279
In       17.18182207273041   -0.23512838003624   11.58214747618070
In       19.74214105569700    2.81531144182350   11.67241778997298
In       19.54758565891558    0.27265685103364   14.99602355599721
In       16.35399758618874    2.57352508153211   13.83556675640033
P        17.22734734147681    0.85390850964946   15.37153555228026
P        17.54913036093587    3.88059485080606   12.08207946546259
P        19.23226593838495    3.84574093222198   15.45127296312897
P        20.90537808397318    1.58798968549223   13.43943374680631
In       17.22178490249309   -1.19724765979072   19.02632126825231
In       19.34089533276682    1.98686128118145   19.18235561092878
In       18.87389090331867   -0.92369592356498   22.63216615780257
In       16.97525416148792    2.56646313166453   22.12317639699878
P        17.81176928151976    0.92918143206955   23.77938521974117
P        18.36621713036846    3.85363605008248   20.48857025454604
P        19.67765547983293    3.91033648930254   23.89550910612384
P        20.08479067874417    0.31316053532473   20.86250400124132
In       15.12751197600747   -1.35243112204362   26.33896456171896
In       17.41655563768623    1.96844329280471   28.20627468662562
P        16.91025596961995    3.17876155621804   26.18977787489428
In       15.18373781048111   11.15564764172647    6.76645268410531
P        16.75123265284827    9.30376516784978    7.02273283587101
P        22.49854696118950    8.37777219370288    9.28464653869822
In       16.97724287304712    5.77213250094571   10.59356132593567
In       19.22842146211105    8.77284886458656   10.82108197094295
In       18.50079053370457    5.50438995164129   13.77863913289939
In       17.24894081123183    9.21278639096970   13.99642033780195
P        18.04475945942424    7.32418409058532   15.41558036777388
P        18.45228219908927   10.60930976311367   12.30041977540960
P        19.83376125946875   10.19204063961792   15.48455018431504
P        19.88924835789449    6.77505754745290   12.13526899358569
In       17.73693448454840    5.38838758828095   18.64513057082825
In       19.87519949186873    8.51125200762616   18.60111497751131
In       19.00926382827241    5.57570784484009   22.19513747224200
In       17.48224656017106    8.98589525191820   21.51284651649339
P        18.02654805848345    7.49797466486759   23.41252969311375
P        18.70929003327285   10.33123593092024   19.79626559098846
P        19.76701131430480   10.58145351728546   23.31530232604506
P        20.19074474078231    6.91934816542213   20.46018923134551
In       17.73646709770918    5.44739945957854   26.58768164041317
In       19.70299303607421   12.07577776366338   26.68347618260130
P        18.48087107039731   13.14434224359181   24.90169069605646
P        19.90833193460723   11.56063115300758    7.77355543804451
In       17.96317208079161   12.63074380921182   10.94823940211477
In       20.07804153082797   15.52418498990231   11.64486444174758
In       19.19050061075075   12.16855658854970   14.13523939123728
In       16.75071918023820   15.55765804754374   13.82617557601705
P        17.97125737427406   13.98246862037442   15.27206934361983
P        18.45554397429557   16.96050430284619   12.72238087169551
P        20.76608653194704   16.40235485812774   15.44743699676121
P        20.79507191981886   13.39314224648275   12.65188928006368
In       19.19957678948273   12.11044945694178   18.12708573945411
In       21.02363891450497   15.17565058924612   19.08913931718807
In       19.17572881636643   12.12734930493761   21.47218936665411
In       17.43501982576231   15.26591242718852   19.94598582648952
P        17.96797954281579   14.19432681444675   22.14014580670334
P        18.92953441100840   15.81545315905803   18.04326838186807
P        22.97035919467164   11.62508783917574   23.65984141041841
P        21.23776877410731   13.19899555261816   20.53927189271697
In       17.43027382721977   15.30063365298035   25.39681994825157
In       21.60377980987566    3.24246293137609   15.16777573893637
P        22.50761930106876    2.01631655726398   17.07943780376075
P        23.21004483636649    4.67622494661819   13.91121756042673
In       22.40171799866254   -0.42381618241514   20.57725923817802
In       24.39283933285004    3.18189648524752   20.48625457148582
In       20.62513842292080    2.27511543951294   22.33399855791770
P        22.01199210374429    3.66452753900705   20.79735046092534
In       22.14247321836744    5.76905084180248   12.00598682206001
In       23.52874319601099    6.31036495030902   15.70539201915174
In       20.59695609411059    8.44036805371173   13.90651842468710
P        21.15525149823624    6.80812083232662   15.67590161267853
P        22.65278149706899    9.51686104546662   12.98738363958495
In       21.00051451707826    5.05526916145470   19.02563279503114
In       23.76848142276700    7.61995983524481   19.52021052759105
In       22.30963467039534    5.38969709849376   22.57602628997044
In       20.85511424525759    8.70193027379266   22.10651188848610
P        21.38199353872079    7.15997998824042   23.97422090377134
P        23.08000558225871    9.29878497065083   21.12624369473905
In       21.92849292868075   11.44371559426061   11.66505175801317
In       23.32294715970850   10.37591483815523   15.18634088624583
In       21.81112651229349   14.33788545538337   14.72515890942914
P        22.23388616960407   12.34931072873315   16.08131215308503
In       22.55154324216592   11.26562977171681   19.76442832483525
In       22.08370599804257   13.68691307277720   22.81630893523857
