418
 energy: -29.409334253542 gnorm: 0.000740700348 xtb: 6.4.1 (afa7bdf)
P         4.74939374661193    4.70468919705932   13.07280231628424
P         6.82986914383624    7.03036297439460   20.55683191911227
P         6.55105643827720    9.65587139090396    8.57662741967487
In        3.67127976268573   10.17654200841544   10.62958944944092
In        3.81908104318143    6.96812975195605   13.02110202409638
In        3.54764616247051   10.15851518942939   14.43945493392132
P         4.56045673354015    8.01741146270033   15.12975988428902
P         4.24313235712013   11.60218690150249   12.55288791215400
P         6.97616876351782   10.57372629424800   15.01395939148005
P         5.02174250804465    8.17852869942052   11.19962205526336
In        3.96912550871136   10.87078447084217   17.95230988270517
In        4.83582023632103    7.58112592080283   19.25260374165677
P         2.37820091346910   11.41004878853773   19.74985295918799
P         5.54426280873640    9.94076835005741   21.34187848830535
P         5.74610618694703    9.16145656465702   17.54567483043051
P         5.38204477913876   13.69235790218348    7.10546775214664
In        5.83512062351830   16.28747578597945   11.31194824971941
In        5.88789055066785   12.64492410644134   14.12984124626022
In        2.42596402922549   14.36589338597214   13.78678946759960
P         4.03148104035587   13.63327409412205   15.44178046562578
P         3.69206819979221   16.01444927552017   12.49782338811304
P         6.60207631565420   16.19647761212660   15.65281484331183
P         6.82747367270101   14.37103964809602   12.56291636348731
In        1.03695199729079   13.37804754366226   19.31679002410102
In        3.91617513250356   15.77391287295702   18.66276849818388
In        4.19053492335753   12.01139039898324   21.35117009248073
In        2.85142554100659   15.80027878315541   22.27681609603745
P         3.40509642450614   13.58890921120093   23.06960037770509
P         4.06293808266184   17.23828238300793   20.66152303261123
P         6.29449600113267   15.97137382584493   23.29857490263302
P         4.84672765601247   13.68608178055285   19.61489959140562
In        5.49326659813000   13.69785062924578   26.40387828632692
P         6.68744881089647   13.16117341287958   24.35745234163803
In        3.93439868722830   19.71868805840520   11.77298429543236
In        4.73394481075139   17.19851078528142   14.42689568630312
P         3.06773354563819   18.34022911275834   15.80179804854284
P         5.74464029844541   21.41564646043471   16.51253991731316
P         5.85534598507937   19.01690156044115   13.10674666672088
In        2.63589033579518   19.12497291471356   19.99877959559140
In        5.31122471665372   21.91179124426604   20.58393249819301
In        5.71425277261858   18.16473396737100   22.31557635486194
P         4.18692731742209   19.44684102762688   23.72661757770284
P         4.16851269554636   23.15134716343305   22.28771690398639
P         7.04125437584968   21.78355489490165   24.34517311392824
P         6.70478422791513   19.87376825176060   20.76385503490827
In        3.80080919633071   22.43381509296302   15.56107035274252
P         6.69270514753825   25.70799309057357   19.35816570413421
P         9.79797030723368    6.27571600142186    8.60793060016609
In       10.32970013968937    3.59377056887973   10.86226054017533
In       10.19846709425223    3.61793043553184   14.61234969991373
In        7.02949202174729    3.82515210469467   13.22769301351477
P         8.05530742525149    4.61530369123136   15.33196239201692
P         8.29890762340904    4.91804805875906   11.37580878701473
P        10.60321537266281    7.03321096612158   15.16864930985485
P        11.71001651545223    4.30732570878789   12.77255932041332
In       10.85674186688046    4.02722027808150   18.03525138161588
In        7.79028638674425    4.96943839743367   19.65809901234101
P         9.18542797935184    5.86151228813270   17.78631210110513
P        10.45885067373054    5.82329336383855   21.56231138964526
P        11.39596784811038    2.15445227477752   19.54048296368299
In        9.19864840767839    5.76577185444383    6.30817379223064
In        5.89999156759727    8.86967759703956    6.36345167365404
P         7.33634832980867    7.10789185717014    5.44987631613157
P         6.38111794744212   10.88294368652981    5.05165950823981
P         9.21728689435606    9.00159896355245    7.19508327244032
P        11.31393516557224    6.16798631705341    5.13571173202599
In        6.59875025983735    6.43873210803669   10.40550298902638
In        9.79612662032713    9.69573261456797   10.52485973340091
In        9.40177131162573    6.45035985911962   13.05253370754265
In        6.48190111073446    9.35544119770008   12.88911345864251
P         7.19458776036300    7.19855372719639   13.92067267115951
P         7.62374382041253   10.74791376047004   11.13037110428397
P         9.72218564323983    9.72709061571228   13.87881576758683
P        10.83352683976753    7.59987406901120   11.35541989888164
In        7.77545384495283    7.79205898634446   17.12929815594127
In       10.18345903644746   10.24943108023444   17.12948411088361
In       10.20822275411272    7.29200373016715   19.60079624037364
In        7.06872492468551   10.23418872299494   19.42486174836611
P         9.17304378803775    9.38625189231820   20.42144952527397
P         8.14751068978589   11.59412562614989   17.57605228727954
P        11.47844521379726   11.74780063218739   20.52795147533499
P        11.61213822248961    8.32923956809814   17.76360487655793
In       10.01080630139982    8.72981325137515   23.70752736967234
P         9.69332196679207   10.82121709846875   24.98473256842880
P         9.41068442233609    7.60615308109209   25.82047232787859
In        8.54050393784115   11.19357907545884    6.21838041557448
In        7.72397489324220   14.25797388530983    7.43886347374381
P         8.95924434308589   12.33809088095897    8.40119947343233
P         8.66252747235724   15.73348400075007    5.71542970103231
P        11.50841768633390   14.91228268772836    8.50072082258524
P         9.70964492436246   12.66084096212466    4.55889765011373
In        6.45718413183209   12.88112058544703   10.61203525696906
In        9.10119833268394   15.46194972086656   10.69038581361654
In        8.93024168255919   11.90548021515764   12.95818043651769
In        8.40538665850563   15.14771789898921   14.34673214826233
P         9.42593093870821   13.01275065725059   15.14119705108161
P         9.25230226279706   16.86123964464870   12.72909972799730
P        11.78498403680606   15.48555368765915   15.28638957733011
P        10.12186357969765   13.25515147029996   11.20264864776215
In        6.47653808636660   13.41358792762406   17.77708903829894
In        8.98858292874041   15.91052469564049   18.12195436604595
In        9.40669077646534   12.63039824049575   19.51233394168622
In        6.50355216410752   14.66713772798367   21.21010705136173
P         8.05231447717981   12.75836288065967   21.58218302603000
P         7.00703678762283   16.45994276940735   19.53061620567408
P        10.03474332920018   15.26370446114354   21.25702880908314
P        10.54441909654475   14.00746259627633   17.70562447073566
In        7.22108126421370   10.83497229014071   24.87713141348800
In        9.93547786204441   15.09430384380745   24.57967549653095
In       10.41952779206269   12.32576885256752   26.80781225728717
P         8.26095933982182   16.06073654456829   26.10208794229829
P        11.87952513549075   13.95607647341131   25.60937935367420
In       10.29303250841899   16.76994758454887    7.30464616909320
P         8.61197757599895   18.24004934803834    8.33351207486253
P        11.21277822453704   20.86375603005610    8.40777749880874
P        11.33323960901343   18.22779381781577    5.58772148392541
In        8.05620165680291   18.89517972364285   11.95577071774475
In       10.38465782473603   21.40886675187582   12.30397585614488
In       10.82665422853984   17.66214610365997   14.50861546619271
In        7.13136623406683   20.03069716731595   15.01674738423325
P         9.02509676566170   18.70311199069085   15.82398584456686
P         8.24120903499590   21.71316367015759   13.52309027621419
P        11.43796371904105   21.28462365060721   16.07602077857032
P        11.71471660686783   19.41749577615911   12.95481985130171
In        6.25637340691433   18.64480651424546   18.65399206680317
In        8.85084387424199   21.40526448160198   18.94649021363426
In        8.69003282618761   17.34157770376821   21.19988810009255
In        8.26965336787382   20.62422501934151   22.58287043993452
P         9.00262482065768   18.41139784909943   23.40387194249422
P         9.24377161171429   22.45710554123163   21.16006609499822
P        11.66486313800490   20.75358600446366   23.55592004691506
P         9.46249703492177   19.09241447604446   19.58582537858559
In        6.61880042513543   17.79601975129493   26.55045779848791
In        9.94524990945442   19.86526855620105   26.94071191804655
In        9.66897000456860   15.94512958216785   28.11390089586695
P        10.99775244500987   17.64559186536930   26.89701742815926
In        6.49439425997770   22.70289020439039   12.14956113150004
In        9.41553018031775   25.45746996286564   12.17477202057768
In        9.55448027693394   22.70240766486287   15.41171290607796
In        7.03933899087982   25.51907759794458   15.45932308957306
P         8.23320092580172   24.08914642109544   16.97932573971549
P        10.65503966079828   26.74975974743719   17.15807149427783
P        10.72108330466039   24.28754126018213   13.86742549966846
In        7.96274751282518   24.57438435221179   21.05867435233864
In       10.73628193811350   27.18853572677371   21.63725132911046
In       10.93544085033005   23.03437339397822   22.92267790866400
P         9.93622441484905   24.13805535074092   24.86054478997496
P        11.84215816066317   24.98959419947339   21.60380320523801
P        13.95562330017242    5.28987391697501    7.44392060678122
In       16.20350316888590    5.62581959286609   11.47156538819365
In       14.21845130958817    2.31317112574170   14.20412767718867
In       12.71630748139924    5.98255010254898   14.33938711441156
P        13.60886438079115    4.11469910035393   15.70375243208681
P        14.44966814788053    6.86724470862670   12.74554314404713
P        16.10347304095266    6.71828242388327   15.88428999305627
P        15.76333511745800    3.60385752736605   12.81164654818145
In       13.47841032886700    0.99580470640319   19.11202265796489
In       15.79565626395313    3.99783025282809   18.89488369244321
In       15.70116319424371    2.88943358302825   22.52595863903030
In       11.89225293691740    3.83659307380013   21.30893662151844
P        13.36638442133383    3.04590241913720   23.11701359394904
P        13.61385932798262    4.77625049111722   19.76314251380499
P        15.73056875133382    6.28541709524482   23.53534259229605
P        17.15320572348054    4.15392670411057   20.96752358963192
In       13.90853252727988    5.93933255425099   26.67480204943800
P        12.68502006942254    6.02620202700315   24.60130253061366
In       14.38255470131556    7.68176284873673    7.60693077370109
In       11.43826373234344    8.37014267268346    6.25315637268049
P        12.44715055794144    8.98503439630137    8.46011041942853
P        12.79635742650546    9.57373631781638    4.53004979624617
P        15.14519074111410   11.22192703121783    8.36002354808596
P        15.60659796121410    8.43751651032146    5.61218353812374
In       12.97321917151852    6.49928253634229   10.77979520165917
In       15.57999852635650    9.06664742440321   10.82373221463731
In       15.21980565592780    8.52337301354158   14.46327635676636
In       11.97785727427914    8.98698915113965   13.11322154817419
P        13.07732746750930    9.51373142348427   15.29307474378856
P        13.35995190050015   10.06412725816422   11.30705097482452
P        15.56718309413302   11.73948873039454   15.36533838372764
P        16.97203358010364    9.32322976464896   12.85618996141532
In       13.32890051633413    6.57187853248577   18.08457240986585
In       15.78668233083851    9.07247484535039   18.38167886603326
In       14.48392404750993    6.43338033573981   21.41884270215520
In       12.55279363938583    9.68505369300055   19.68965164072553
P        12.77066133303975    8.19793414546124   21.65009476340574
P        14.00820574396642   10.74003182128800   17.90085881043019
P        15.23744336409454   10.44814492347470   21.60686757992011
P        16.30260852454493    7.11634093982790   19.83773215896255
In       10.40859547939757    5.44491551269710   25.23937241810598
In       14.92920928717059    9.51555603887617   24.91399619132161
In       11.29516565924856    8.85118160582252   26.81596942149327
P        12.55650926897746   10.24764835879223   25.17569764292730
P        16.48396349727123    9.30151014323737   26.79368956548202
In       10.77138152616240   10.64454094361016    3.63043663952774
In       13.24651948469591   13.24094704200533    3.73225748001278
In       13.85032608171894   11.02784959217785    6.25050919693827
In       11.06693015288079   13.81273831182485    6.29568483481048
P        11.67197644151386   11.61649191091476    7.27464722871766
P        12.24537442116831   15.29937989670236    4.66050874055880
P        14.24583364345916   14.07747405157777    7.40199350667890
P        15.30464372777546   12.15283637596980    4.55081042395451
In       12.27505179553727   12.17776495434902   10.57377132251948
In       14.67872619599777   14.66925652708882   10.75710601162559
In       14.38104696513920   11.42888322996684   13.18981261196237
In       11.38087310700472   14.38474856004840   13.07873146282038
P        12.15443744706682   12.19510569503849   13.98749855666029
P        12.53494834951295   15.80523300436496   11.34390041917959
P        14.51737361547938   14.61464358326548   14.19198774922014
P        15.80068457229489   12.56134163629021   11.46049577140623
In       12.59235095410567   12.66995565571792   17.24049632819942
In       14.97490177865872   15.14280612518773   17.41821296050816
In       14.86094470696243   12.12867191787477   19.85348297666825
In       11.86676283419347   14.99421762509417   19.62962696592615
P        13.82641799222645   14.13914583239883   20.84302369538408
P        12.91475354604236   16.46648875815562   17.86530459410576
P        16.11055255321912   16.51911616014503   21.13565781446931
P        16.34752470858034   13.20359813591981   18.12251428342781
In       12.44588397144791   12.33047570810449   23.83122218627425
In       14.94859031126517   14.78175741734162   24.37733807932293
In       13.57352838004403   11.55860294020490   27.09283303595977
In       13.25904351184019   15.10184396939644   27.31747066635845
P        13.26314226575703   13.21079090189704   28.88965061423364
P        14.51387882364988   16.73252936337504   25.86488689695823
P        16.02245528616607   15.77494464945512   29.27105008998886
P        15.26723412041775   12.70265557171519   25.67892406332941
In       13.74320175430358   16.27966066420968    6.39661648836884
In       12.73868747396989   19.32663736000913    7.29054308066326
P        13.83165665235110   17.50346648648259    8.55759153183714
P        16.35168360883721   20.27968887678679    8.69654988117230
P        14.90730283198014   17.91716373951945    4.95580023582776
In       11.53032019100565   18.03862456413095   10.91107708485354
In       14.04214226935628   20.54305132676506   11.09578845205989
In       13.76575079101451   16.82254794681161   13.31989541388908
In       13.24864218290924   20.32387854656269   14.71260121910553
P        13.96190732979297   18.06305325303146   15.48246662329951
P        14.34933724345245   21.92591165240964   13.12407227985311
P        16.41246940844873   20.62622998869110   15.83160200663548
P        14.96258638783427   18.32774308797468   11.71043293294931
In       11.45175212404226   18.44719639888995   18.23720785721112
In       13.96555258146113   20.95180528391589   18.45585576499125
In       14.21269806298176   17.39751747859632   19.84133583278580
In       11.16969236310520   19.80842591088472   21.31957424576631
P        12.32993984070948   17.62375280320769   21.42514421362826
P        12.01949886961800   21.63860932476495   19.84608942630036
P        14.71878547030818   20.02072200114920   21.71990008880796
P        15.35696283120410   18.90766193542344   18.17498924179775
In       12.38013378912423   17.48233605983513   24.84882469181184
In       15.58118875555134   19.68916767941394   25.07520795069191
In       16.15478426630392   17.53206086905816   27.55283277019890
In       12.84040446956470   18.09265912830130   28.52713313337707
P        13.88871060841275   19.58234709110132   26.86058640280529
P        17.69186496032295   18.61679031744671   25.86594090290792
In       15.32232068021064   22.35435269713468    7.94129706857653
P        13.62957647406447   23.91473230012302    8.62548526208333
In       12.80914912326478   23.80423902454832   12.62090395705484
In       15.13950616941551   26.01963467501055   13.53110552547704
In       15.89559659982771   22.87086139145740   14.84963649948735
In       12.03083236925777   25.25618766143621   15.77870180460746
P        13.99388447169535   23.80690494512173   16.11751065171445
P        12.97497464226790   26.89859855169114   14.19774025910281
P        16.53891527845514   26.41731015978028   16.70339199578772
P        17.09862175743846   24.50163422018677   13.30422574396869
In       11.44172396922727   23.99622711806228   19.36249662717346
In       14.00483509450817   26.48049776406731   19.70368056946531
In       13.73599960626850   22.28616863722607   21.58869854902093
In       13.61170435628335   25.44316309865566   23.31418907319678
P        14.19543247254623   23.12010770881713   23.87228110768176
P        14.51416736677047   27.29113711175964   21.95038524229864
P        14.63600207515655   24.13631924905680   20.17606005266281
In       13.42656372907433   21.87385522194819   27.57462328561436
In       19.57284788499771    3.69198233147965   12.26818928673074
In       16.93336730192395    4.74068861920807   14.69659128658415
P        18.13684113137764    3.10644590457053   16.05978760712492
P        18.81936003222528    5.73594900186652   13.37097660876708
P        21.17556756986100    5.83669271878306   16.72422796843357
In       19.03133768960136    2.68483946053028   20.37260418186765
In       21.71503472180380    5.42282926186045   20.76415974201360
In       17.97590804201080    5.91366554408162   22.56473031621314
P        19.34910701250016    4.60540767765142   24.10511690965427
P        19.68124022458379    6.82486193849605   20.95868152349292
P        21.89496338198741    7.35877013069288   24.38463800309496
P        23.04468955043406    4.35486718120314   22.44950310337332
In       16.89701777881329   10.01016789377691    7.06147876104583
P        18.26331291276082    8.38422931656641    8.28768446814010
P        18.32685231250854   11.16901869577336    5.40501485315397
P        20.85667999283138   11.01877593208172    8.46456703358541
In       18.76465243410481    7.81934981275315   12.01751345448226
In       21.09435611722701   10.22778543142161   12.32296280481356
In       19.72497854967730    7.15845493620042   15.23109567709851
In       17.79217161813211   10.99508513781474   14.52723514109564
P        18.61568246039032    9.20423306338257   16.00054359303380
P        19.41400595482029   11.97489010530867   12.87481440139006
P        21.05451169756084   11.82559862230045   15.96636699032492
P        21.44113122950521    8.22092095017741   13.74240439826345
In       18.43907711510434    6.34039682343593   18.86566753044531
In       21.07051387488638    8.93260965553464   18.96819338031829
In       20.60919361201663    8.45848826876509   22.62426863344736
In       17.12477764312772    8.85906779083301   21.47780762916152
P        18.42053954731188    9.09404396512323   23.57626483107823
P        18.83857781667808    9.60523722146498   19.80360682764967
P        20.96677940640010   11.67508185121921   23.52069869318662
P        22.36091849938023    9.34034691548143   21.04702210446351
In       17.76938214458264    7.25222023414655   27.05253381194821
In       20.54978389881892   10.26010509998408   27.10037868856723
In       16.81649614223680   10.65150985317617   28.81317959395733
P        18.64400682283532   11.74441179325171   27.52771160563699
In       19.40225091107952   12.49584045476885    7.18468294544420
In       16.39142530238539   13.59706594282397    6.26497757322989
P        17.61178954168552   13.67355509147805    8.43974164919292
P        18.01844057750522   14.76270501988974    4.81396551796923
P        21.29561573648097   15.95514846087635    7.66013967820855
In       18.00475303504856   11.59287593534209   10.88056980886014
In       20.33600576555109   14.46488343481684   10.80117706173431
In       20.12331109496349   13.64405708132310   14.58817037929178
In       16.74521860498806   13.85747152725826   13.41861895004062
P        17.90998905524891   14.17258926421697   15.60800559874435
P        18.18949792101411   15.11357013765868   11.82086507717332
P        20.40439092203411   16.62886649327748   15.88620061932367
P        21.59836882805193   14.83573879935656   12.89458036282037
In       18.21176948637018   11.59768912722910   18.44310228791963
In       20.70480914178331   14.10101976244002   18.55691408397206
In       19.68699270946191   11.35477647571251   21.42670208575695
In       17.18948835746948   14.54151008037210   20.11369321221914
P        17.65523302940143   12.72819490221161   21.71855457515615
P        18.72389276665867   15.58576464802505   18.39958392942108
P        20.16488072452265   14.94452569257100   21.86459162795559
P        21.46979424017633   12.11058574692078   19.84154715175014
In       17.60188700314862   11.94884747085045   25.28034802150976
In       20.27369575592500   14.10061223683011   25.75047441835812
In       19.45571069974740   13.43738392766600   29.15056026038026
In       16.27887473843041   14.03023112329091   27.56195186013410
P        18.03221101032716   15.08306683970115   26.15442928887254
P        21.45279073021742   14.15667731360394   27.91090471125809
In       19.04328362866822   15.97164176919933    6.68126568757354
In       16.32853516723198   18.77139180998828    6.75743470925870
P        16.86222454649725   16.55054191846781    7.67289423653922
In       17.08410717980859   17.20672665431312   11.05900279975454
In       19.44198960703120   19.72635180039696   11.34659485073651
In       19.03900249020605   16.41300792158114   13.81089584413224
In       16.14887135544181   19.33841833606150   13.70537173916046
P        16.79021231164041   17.09953097972828   14.55272669867476
P        17.36548578186186   20.85076078985651   12.12840241502258
P        19.31991617629768   19.52446183745151   14.88383940289676
P        20.46213962961263   17.59581156951640   12.14662152377717
In       17.41529196048359   17.58258305345482   17.73241978896336
In       19.91402997305117   20.01178566878228   18.09123309981637
In       19.59520887476230   16.85810388178199   20.41359209521930
In       16.64431137956397   19.73631345768726   20.20131285375810
P        18.52454837299102   18.80500288156750   21.49999299137445
P        17.90976838641916   21.31783049342274   18.72179830434872
P        21.25170851002133   21.37085586839313   21.86810672538493
P        21.17281481150757   18.02789241793727   18.85168881870365
In       17.89230481203330   16.71216714721327   24.30480943376194
In       20.35162578525130   19.53531381478791   24.54549859204922
In       19.18200372326209   16.54827401326158   27.83583758510677
In       18.92135391574215   20.04513206013073   27.49401528610429
P        19.14780021517683   21.47054420195007   25.48335412742779
P        20.56561644305168   17.61263772850415   26.07874593348091
In       16.76156796340188   23.09772924262736   11.28773228018396
In       18.69940991592843   21.76724105575240   14.06262736066377
In       18.26088653330936   25.42535439644093   15.31121312011101
P        19.00675350589916   23.21161878339838   16.04437375445175
P        19.86822854447378   23.33531722517188   12.57109591498879
In       16.54732440284893   23.37842724859630   18.78982614114993
In       19.38338918403467   25.78239638724177   19.51914265210098
In       19.18961992900339   22.11547902953959   20.74081273655901
In       16.37800235191272   24.66328940898741   21.91807609278204
P        17.21250217298774   22.37590061491572   22.18424419706846
P        17.32521254688858   26.48932899236516   20.58352715785843
P        20.37943108304633   23.58994638642368   19.12437158337645
In       17.47983211476099   23.17757377194073   25.90250842264505
In       22.33246246322707    3.87891460857745   15.98511368799588
P        25.59958831513193    6.73544734059567   19.17106157661491
In       22.46955557472490    6.42175827211836   12.46541818338445
In       25.01374113349329    9.59444722049274   12.09364021627373
In       25.21280221163951    7.30580590354499   15.39825382153487
In       22.27864003798897    9.73653138251449   15.55463314524509
P        23.79459581705153    8.40655200925700   16.99503476717447
P        23.95055715436621   10.71408074598931   13.97560726070617
P        26.67882788739008   10.82672398672592   16.84769148509514
In       24.45268985693757    8.02787822753571   20.84458614437157
In       27.19785298976156   10.75517853377297   21.03140323790153
In       23.21170170664050   10.99063525294779   22.73633951728439
P        24.55847375691157    9.96838935485474   24.50052850734590
P        25.02495784578756   11.89393174261930   21.23006402846731
In       23.14951696150051   14.48947473601619    8.19377726749001
P        24.28062799782175   12.76114538983724    9.40708824694933
In       23.03243282202764   12.80101026476691   13.00329243367727
In       25.66139763744525   15.32445862841092   12.55935167460044
In       25.08561435658825   12.23620957715603   15.62592151982742
In       22.60127775719102   16.04345159012361   14.85337152216703
P        23.57644037052269   14.13686676047904   16.09240529502487
P        24.02570623463365   17.11778688394836   13.05912661464789
P        26.19507519127111   16.57788603627054   16.16104941028977
P        26.32325322641050   13.36543877511315   13.81480354608001
In       23.76533337166382   11.52051592788477   19.12337659804719
In       26.35676517945574   14.06513048185880   19.24698387791286
In       25.67270850376292   13.63121225396009   22.91102281584743
In       22.32484134289527   13.80961666450097   21.51359364212549
P        23.42273787070487   14.24811805101444   23.68822275475000
P        24.07421104581306   14.69280918688413   19.96564056881306
P        27.40187008791505   14.53739809829338   21.40238120371402
In       23.52712852796885   12.92869169980054   27.58672793605719
In       22.63020067550196   17.22690664550759   11.00343567451861
In       25.12738470147694   18.36506732298190   14.92021983267174
In       21.55234635584707   18.93283485784722   13.99732256660709
P        23.04977663480863   19.14591558288217   15.95284641499211
P        22.98918023578127   20.19052088994356   12.44447204880037
In       23.21562860812536   16.65115918688711   18.70479595539132
In       25.66779624567305   19.40702305103202   19.09546663692250
In       24.79965463638633   16.43350801811528   21.63682843049855
In       22.05439598448771   19.26667600240183   20.85573420975872
P        22.56697510278850   17.26543739362307   22.20074293313891
P        23.45870466800548   20.44157289851879   19.16852796416951
P        26.47600801400994   17.35551805577589   20.10044219847547
In       22.94524076230028   17.07752693718396   26.20175207126890
In       22.02981407569182   22.37656262829302   12.01834421279103
In       22.43102570919469   22.50529715813216   18.35364201874998
