168
 energy: -12.463101233668 gnorm: 0.000131926253 xtb: 6.4.1 (afa7bdf)
In       13.04992806931737   11.47828270885745    2.07145153847164
P        14.62403969995740   12.26130173769799    3.82339298231179
P        14.68433591198100   10.59352138772397    0.48862825022540
In       12.93977765546868   10.81348261171404    6.81439590676494
P        13.79250382663399   12.05276029099698    8.75311406226598
P        14.72537708878924    9.89775923409605    5.38996736630926
In       16.38657726796413   17.15742797855557    2.36129182869006
In       14.55415434476993   14.43553780813772    2.58414617859665
In       13.72928195388326   18.70244622094243    4.04953382003484
P        13.43193600919836   16.30497061318117    3.73346211870084
P        14.90236469436295   19.11698727474328    1.93521525559322
P        17.62246016594911   17.96104726900273    4.36549508839003
P        16.62172862495323   15.08466714198468    3.81579276856055
In       17.27091415500412   17.12048775345913   10.29416749059921
In       14.68363025696134   14.36715718922970    8.89491075049395
In       15.44463156124714   17.25518783230102    7.18948249760578
P        14.31333017870531   15.16003383176563    6.59660945171748
P        15.42277548492592   18.44236261565885    9.34232395306536
P        19.25312532674243   18.45967436754877    9.66876274159103
P        17.03823718119523   14.77571714505282    9.54625501592248
In       15.73537542191631   21.17068654292714    0.86784265383955
In       18.63825314091551   23.60448652765706    3.40449972371460
In       17.58389196438908   20.32381266777745    3.60593132325662
P        17.98601633258123   20.25127318933776    1.17062082122795
P        20.46099859392122   23.68052389386021    1.78954567376527
P        19.44586896971964   21.63293654892226    4.67636341158999
In       14.91121767066220   20.60393647965226    8.28828985990677
In       20.32051422631732   24.14761934697027    7.52038322773629
In       18.13701684696075   20.64127709561965    9.25449083171263
P        17.00738675089078   20.93990664333987    7.08066169911207
P        21.74427592915605   22.94659794390358    5.91486516693959
P        19.79950959524557   22.48426921429554    9.24024049347625
In       17.59048376284564    5.07837404974929    1.87707332366821
P        16.19457712470052    6.73148425576550    0.77226724416058
P        19.16065790850515    6.30748704177512    3.33723067411663
In       16.50363746586531    4.43742441950906    6.08551065821740
P        16.71256259685011    6.65923009391478    5.03856302293942
P        17.33282595640230    5.73003281670178    8.00823953898544
In       15.19381226865040    8.66283251953775    1.92329904953670
In       20.52405904044645   11.91908382392507    2.99002226621842
In       18.69897604414417    8.45598014832732    2.13275162799401
In       16.79993106415641   11.48959308673524    2.82686271758297
P        16.88483646303758    9.13908055770280    3.71512200329078
P        18.66787130593401   12.20686982679936    1.35136499742281
P        22.76931778320068   13.07713672045501    2.79611280502637
P        20.87911383638522    9.64972022863084    2.00717411851951
In       14.89768112874040    7.64094886024407    6.44648844690290
In       18.61777641364515   11.44050346946051    5.93570966000072
In       17.83778890723866    8.16454510829378    7.80509280201823
In       16.11652361524828   11.36578317722361    8.19372176323250
P        15.57170984783034    8.95153073826547    8.44328293218467
P        16.51040273143034   12.78191702666225    6.17368280675251
P        20.38511414697415   12.39129301739240    7.38198934687284
P        19.14135841037013    9.00665790488957    5.84818030707179
In       18.32488948009203   14.55437333453115    2.06889036537474
In       22.59650481931916   17.46510546724214    1.34129375879901
In       21.52289700482241   14.24391375351061    0.94854192263935
In       19.79340782686526   17.54244651307803    3.21358603477187
P        20.53161578683861   15.16525181330323    3.05937759727789
P        20.54454615387299   18.89188311891069    1.28144767188861
P        23.54908957606371   18.04154568787294    3.57448034139724
P        22.98802685845830   15.73401553856216   -0.39171564468341
In       17.67370949490316   14.72094713834715    7.17083203144229
In       22.50866736879509   17.89389607787640    7.06523530562493
In       21.14122335036772   14.74822722297615    7.28638468646819
In       19.17370921514052   18.19559570629651    7.22166979811209
P        19.42961859116830   16.03543494884126    5.99188811750773
P        20.93294904966211   19.63902067713701    6.19036142936231
P        24.49238451756342   19.11079840278238    6.10911970640673
P        22.49137155690109   15.92278205945868    5.52160842525625
In       21.01227799496988   20.67717460208104    2.96116822975810
In       26.94493007026943   22.53116884108646    1.73029300482647
In       24.39344299567184   20.05401516699710    2.32392560888861
In       22.79947056324322   23.39891261987471    2.48872874729124
P        23.16525489356753   21.44054893928738    4.01232587753357
P        24.71174503293503   23.11538975955071    0.97404078599287
P        26.69169101117014   20.55215666460401    3.19335219815417
In       21.45183267852707   20.87166528479114    8.31415871735251
In       27.45931145186651   23.40029347733432    6.35152341109335
In       25.08344718447000   20.42766844044929    8.15499037352407
In       23.95669387811243   23.59673969680231    6.87065420038489
P        23.48694952146960   22.19402393438772    8.84846964292905
P        25.46965478002530   22.43801705071161    5.27434125678098
P        27.23699207019985   21.66825790992448    8.07619882033349
In       23.74355540184296    5.10510968815861    3.63044394832844
In       20.60058752121136    2.71014066203257    1.99763355423800
In       21.27827639142649    6.33864900054639    2.00672091142811
P        21.19735080007885    4.45934566117699    0.43238898750696
P        21.99674574216423    6.72748810222990    4.38363828071312
P        24.55197043692886    5.64560191395427    1.36014917037920
P        22.58230037310718    2.90550469901052    3.44441472045956
In       22.98142168563070    5.57028742214261    9.00993076065683
In       21.69631178259614    2.44901685071528    6.91270324489452
In       19.66331587486152    5.43441066035463    7.19957787552864
P        20.77437235289732    4.14598044923251    5.40749278630633
P        20.85593901587345    6.83159342053493    8.85278094040069
P        24.76711367037755    7.26760266219110    8.77906446315324
P        23.62855577558911    3.34287764294065    8.13815331967517
In       22.59939509627230    9.02744453735174    3.67537059131517
In       26.93735732905762   11.37855511633052    0.80051119939868
In       24.91565413514127    8.09281898678365    1.12919606342852
In       23.64083545528460   11.24890038834340    1.31471653410435
P        24.87034538345471    9.78939188450406    2.96298171420553
P        24.99825100015113   12.11934909924234   -0.56688490030910
P        27.50898337116187   11.89761234417799    3.18366872221444
P        27.07249077905828    8.95585726593057    0.25459819912915
In       21.04447279783561    8.87578392535436    7.46670903987109
In       26.22868617469198   11.16804742413628    6.52201658324987
In       24.43074300717365    8.36094419760206    6.58200417681262
In       22.37568220769242   11.66608852756268    6.06284644645887
P        23.18210220961521   10.11653656401024    7.82105111293241
P        24.56140647983111   12.07860789235029    4.86883155442473
P        28.49000956923801   12.06561470906639    5.90560252811396
P        26.61431299512617    8.90066707857853    5.47182528800384
In       25.06400767955718   14.49306802980107    0.11919642583386
In       30.01543199105749   17.21733761496926    3.13458864112934
In       27.89353065580389   14.25722322325775    2.35921269327984
In       25.44165831079376   16.42528249859139    3.39284492887811
P        25.39996337337454   14.07152415090059    2.53622391495972
P        27.62732141617851   17.52124418428550    3.77541554372626
P        31.48648918755159   19.24332472988683    3.21341476464967
P        29.60039329787850   14.93111830726870    4.03836485305869
In       24.33339063948608   14.30163580256270    6.01365571083931
In       29.85089086596357   17.33214061832619    7.04999410115593
In       27.80491855709516   14.34718885100387    6.71390618410240
In       25.79922564825744   17.27496909718823    7.24980989737296
P        25.72392419426944   14.88417972836346    7.96664997297400
P        27.85923550952764   18.31340004651532    8.16099819593742
P        31.75686583392101   18.74460856221974    6.31750526634835
P        29.46945981290063   15.23600427075565    8.32476790225257
In       27.42894916841204   18.73696397416184    1.61585688033645
In       30.92852932582223   20.02241805736855    0.93275128542644
P        29.32234465417538   18.41122033467867    0.08244552545044
In       27.78721064866123   19.98708229292357    6.33140833715098
In       31.25265355467906   21.13662705899928    5.99946328860810
P        29.25634607732869   20.94137577281199    4.59095802085519
In       24.26495867793704    1.89108009400615    1.95980563175097
In       29.31742657779555    5.64791125982375    4.14850963810553
In       26.81456938994851    4.82363137448176    1.97460327318069
P        26.35525407192142    2.62351028068374    2.96470130165638
P        26.98030242301903    6.46022164205152    3.85295744826399
P        30.80633829522441    6.39325690103126    2.36807140351092
In       25.51155940155170    2.25868641978545    6.97640118910531
In       30.26086871400859    4.86448518266055    7.65298603190690
In       26.16425027418131    5.49342762646355    7.77021391830491
P        26.19033182358132    4.21379849345424    5.64960919022105
P        28.40006780743141    6.08581116669636    8.65689478947631
P        31.54856401035566    6.81398216376399    7.01269338034463
In       28.00404405603618    8.24217995565879    2.43535795540227
In       33.82124811889128   11.78244838630299    3.50714727110860
In       31.68401541614642    8.43510715748983    3.42317175411067
In       29.85802202527234   11.10236839927972    2.92421328803292
P        29.43588255973301    9.04838147829356    4.31903944703857
P        31.54475046968384   12.29466199481404    4.33653176104896
P        32.90566844748931   10.06190888755908    2.04760334795760
In       28.08838579885220    8.18383654653160    7.36107007883856
In       33.36656982098771   11.33494750896071    7.68765428297121
In       31.18703114725992    8.83596797541832    8.35963198006861
In       29.36223365354113   11.87257854464271    8.25323677943111
P        28.96856815871245    9.60767570289784    9.18087034502784
P        31.64072570973594   12.22261780289719    9.18929813258346
P        31.50526179280194   10.34455571880136    6.40971692554738
In       31.42459022936380   14.07594231385222    2.56075731177671
In       33.50090210936488   17.98657415233906    2.51229676507604
P        33.36069298830802   15.57616987418162    2.75318703158457
In       31.79399048135200   14.43590118180971    8.07599610851201
In       33.56247626270478   17.09237578743793    6.53180962141791
P        32.59690468137475   14.96728024716676    5.80838397808702
