150
 energy: -10.351069391387 gnorm: 0.000123175749 xtb: 6.4.1 (afa7bdf)
In        4.51538214635403    7.24552685666767    4.57365854789262
In        5.87717769595412    0.25696415536312    9.77041822944791
In        5.57467804460106    4.36876822428907   10.08472065412499
P         3.91121702976492    4.65957758040259    8.31566052720239
P         7.07310276878777    2.39235361996164    9.80728825575881
In        4.18677347077192    6.31308167043671   15.64305567841109
In        2.45603679751343    4.67097344223663   12.58476053163693
P         3.46647202210798    6.75445650403112   13.31642850646995
P         5.06505628493749    4.01861792027225   15.68388567468545
In        5.18169134279589   11.26643945952797    4.74671304108602
In        4.74209415534449   15.80491200394698    4.97279826633300
P         5.83022763110843   13.60706351345847    5.25876855331161
P         6.09368643212180    9.00618698385871    5.19501476135675
In        2.77636184497538    6.80565085160212    8.25601744522809
In        4.98290084652076    8.77874014770882   10.42011110504392
In        4.39776633379571   13.36255512918919   10.54179140096307
In        2.77595443716111   11.15215076406057    8.01816425654709
P         3.92613217455277    8.98328683055594    8.18459912918806
P         3.74625126056750   13.41386578719152    8.14711252371592
P         5.51628849675772   11.16831794389931   10.93103102899626
P         6.37154109753609    6.68476383311871   10.58693926918181
In        2.53747775156431    9.02605949979265   13.43145077274704
In        4.51140378947452   10.90119120497642   16.17066979079182
In        4.80543352688513   15.27937242107853   16.55005068456860
In        2.69081827837932   13.31348996159626   13.95166672320148
P         3.79877589464226   11.11179913104956   13.80403595185961
P         3.92324323108729   15.43205618661419   14.23222603919340
P         5.76939746023269   12.98628828907472   16.71795723999886
P         5.16106923263457    8.50263976743143   16.29288672347892
P         3.48111434770072    8.23502926241582   19.24525014536369
P         4.51052374088888   17.72957250219041   20.02223251286010
P         6.50817956604067   14.78254208457186   22.40407304708946
P         5.19868174118899   18.09812644310453    5.54758357196583
In        2.40928064364225   15.48054203119002    8.28094243320326
In        4.38481246690644   17.98266010147912   10.90889224563055
P         3.18443251321901   17.72367028993659    8.79061239360013
P         5.47153849344233   20.15286291186498   11.35792007529879
P         5.19600855318723   15.64009028168332   11.16288910579366
In        2.95775136438860   17.69361956465093   14.43723283088162
In        5.53395457288339   19.85572999374281   16.56005994695542
P         4.25311089549832   19.75538412077416   14.46766876037844
P         7.04373506864337   21.78999380309585   16.74511508438570
P         6.01233006568424   17.43347147540011   16.85079561718883
In       10.80665961748039    7.46911195313886    4.41009514597847
P        10.32307488208952    5.20907768684282    5.05968493483730
In        9.63912788375283    0.95499244946397    8.41613299608511
In        9.15663724439375    4.80417004908179    9.61776973185364
In        7.05576280151092    2.89611496540128    7.36008220450645
P         9.08815657742387    2.00454012831714    6.29425377071299
P         8.05272420879786    5.15823182418597    7.44672603726759
P        10.60720919319366    2.77535260500920    9.76518430381212
In        7.93468046259133    1.64342686087149   15.14551973158261
In        7.58180092115581    6.17194027468123   15.84349551663334
In        6.21340008989088    4.02276306211925   13.51982012674091
P         7.45941017888203    2.00684612615549   12.76904828904197
P         6.99148578510390    6.39239826079043   13.43896365732537
P         8.60846818636366    3.91571811210210   15.80427316221779
In        7.01681797687039    5.79149908395144   19.74580622115739
P         7.40645153793085    8.12081972373306   19.30563885657022
In        7.54548663304202    8.93642199325432    3.19469036138574
In        8.37675740772948   11.36131750751716    5.43565965937549
In        8.28297662751052   15.86615417519877    5.58567488129663
In        7.16787409782796   13.68125483370863    3.16512498858193
P         7.98410921420894   11.34984760466067    2.98923946912676
P         8.05320653273496   15.96876953407025    3.15611439318284
P         9.33237406829944   13.63092040382466    5.83680507350661
P        10.10143406447045    9.60263571336256    5.33027348716741
In        6.42761983877523    6.89326016093415    8.10492116285427
In        8.17860660077292    9.22096797798434   10.36783801294019
In        7.77721582414803   13.64530819919755   10.65869600504111
In        6.34734257625273   11.37442323708466    8.61005183618240
P         7.36466919614898    9.18608984798814    8.02917096405963
P         7.13665031014746   13.69914806242537    8.26360869141307
P         8.95902615801650   11.48554550701220   11.00008389555132
P         9.44924508064096    7.08462535646730   10.58930894942040
In        6.10165206997487    8.64593820787587   14.01547629906226
In        7.89138922999457   10.68168886020173   16.10290804551164
In        8.31422054590514   15.03493169449763   16.31971610476678
In        6.34052614729846   13.15830524514763   14.30992550136271
P         7.14535044733035   10.88186523381772   13.74610269456071
P         7.68341171745142   15.21363961403839   13.93229011467741
P         9.17898206505027   12.72521956398187   16.67105530738935
P         8.62455850485134    8.33955031192538   16.48124725194947
In        6.76497589802076   10.42262278101374   19.75448573711519
In        9.19268003294725   12.36017872472930   21.56854835293501
In        9.86915882160148   15.96419493544185   21.26338786617967
In        6.91285717086643   14.72718185902032   20.02258930442325
P         7.94546746798690   12.55627554196906   19.43717703337043
P         8.36954078662824   16.64816874762105   19.43203091034665
P        11.12380980211854   13.89766625451359   21.68687000762757
P         9.77565656612861   10.00139345604194   21.87576637772750
In        8.88140290605338   20.09662508296306    4.85186796922668
P         9.10615080875848   18.10868910075010    6.17940393377705
In        5.96523359475447   15.82005898937502    8.81161233152323
In        7.74455022980838   17.82057041315537   10.95037291295529
In        6.27386763078846   20.51880380272923    9.08578747053507
P         6.79275578541129   18.14947366018328    8.68820478972940
P         9.16672653090377   19.79175799573694   11.31791023102322
P         9.02986680151817   15.71115600533109   11.22734562273006
In        6.57940646244473   17.37752929227585   14.44366529884583
In        8.87267801159383   19.12593926388040   16.08923443790751
In        7.50388515553762   22.03209112083840   14.37060537538347
P         7.61000543924624   19.59888378419329   14.00652473685518
P        10.77808753410175   20.64388037707329   16.46119386704979
P         9.89176075602822   16.92851753886700   16.65371862537236
In        8.25852203085739   19.03003187194086   20.01615649962875
P        10.19680650959002   20.38674059245724   19.60775114764372
In       12.97271966876509    6.60133484469700   10.17460755705358
In       12.28167837238620    3.51273032004065    8.12536814541098
P        11.99957449258267    5.94440196209161    7.98699914715571
P        12.32198929250820    4.68126841184956   11.54010259364698
In       11.87118052463823    6.29582182369103   15.44150652414567
In        9.59053431577823    4.34861342674731   13.56892777368997
P        11.08402533683347    2.41400921325842   13.47857181476633
P        10.69474702262194    6.59381525156850   13.28712377349038
P        10.96891083826834    6.71254574291337   19.34311437433760
In       14.42020974467772   11.96319864507099    6.20629562910967
In       13.36204602811277   16.93484482598438    5.07667261523651
In       10.99058249654311   13.59064046659430    4.04656591195175
In       10.44503446879067    7.81477871023599    8.42752568151704
In       12.80575938496773   10.49711653143392   10.11180470843756
In       12.84184043585811   14.30769583670281    9.97466977370806
In       10.05713831718396   11.90424739200294    8.81315328706810
P        11.50981068238019   10.03463263255821    8.06019508814952
P        11.19929385646204   14.01394236562271    8.14944716478786
P        12.02148120236174   12.46532451410130   11.42628861705927
P        12.02507009450497    8.54285782389823   11.40092971644290
In        9.54238167898171    8.61600530175435   14.19835722413069
In       12.38974336182625   10.12317811445886   15.03082366601918
In       13.16526361010681   13.92683802220380   14.37304585451064
In        9.98459574262606   12.74947737409143   14.32232587143817
P        10.74024873444467   10.61124177688421   13.21759787857185
P        11.14186018330982   14.62975819804015   13.08570748569566
P        12.59169094313006   12.33361213853727   16.15401653807654
P        11.80485675349573    8.39209807484746   16.71595112333609
In       11.09688526817455    9.03187647340871   20.07379025561917
In       11.92534605196969   12.82382441734625   19.61064778196690
P        11.77638752754117   10.68569953917143   18.36651335442738
P        11.19854956455131   14.71463612229803   18.18503653730465
In       10.03939263265264   16.04488972533159    8.98406203428528
In       13.36993146272043   17.94923033528098    9.65881576486168
In       10.29713225875639   20.02053352255726    9.18639874550638
P        11.36384022840831   18.02046852064600    8.24099070832083
P        12.38509700631883   16.38733707959555   11.27466270319394
In       10.68490578158452   16.80311566721776   14.28918994886115
In       13.86187706709341   18.11508153164083   14.11278991672416
In       11.31583205913207   20.85013877717593   14.10923741983718
P        11.73384727033713   18.69471003150907   12.98546778280329
P        13.80291006222789   16.05944808774593   15.39521943113862
In       12.77708992250544   16.38015267363459   18.98364431666969
