18
 energy: -1.121737171448 gnorm: 0.000791380701 xtb: 6.4.1 (afa7bdf)
P        11.88284442646276    8.80014856487300    4.71145431570451
In        8.10918407500787    9.23885063938998    3.17967025605872
In        9.31138244622405   11.75692827026583    0.57041725723203
In       11.44933848527254   10.70453243234483    3.26769798584675
In        7.21858846448081   12.94387655941997    3.37915027427854
P         9.10343588198878   11.39464784970583    3.74921208994391
P         7.10995695846954   12.83602713378588    0.93524231857735
P        10.30822897732125   13.50749111832585    2.01355968503933
P        11.09777720564630   10.11210016038254    0.91901773677600
In        7.65098859063498   15.04314161411586    0.02205658045929
In       13.29046681514477   13.91646945172679    3.31513303290029
In       11.33070346634943   15.26141137741734    0.59363500704764
In        9.22466464071617   16.44531143655019    3.40061403116003
P         9.28345326506118   16.60918988851327    0.95942025959699
P        11.51307992455151   15.59984015696049    3.77604271098239
P        15.14255869607961   14.52234504196585    4.76691587128392
P        13.63657759450790   14.51324314811691    0.96610371350425
In       12.87894916967876   17.54508437605990    3.21267687360842
