174
 energy: -12.427779223008 gnorm: 0.000551823154 xtb: 6.4.1 (afa7bdf)
In        7.16063631332868    8.01869992526926   10.43100007543158
P         8.12692376162364    5.78749126996722   10.61304093377167
In        7.07593971946661    6.15397371165594   16.65768487943182
P         8.11957355394351    3.95644087129086   16.59368877306040
In        7.30827574298619   12.25169733352003    9.84344401355741
P         8.42188143247768   14.37797686084720    9.46103209985454
P         8.46323370571475   10.09281183957499   10.13046371808474
P         7.78018041226723   12.61669771875880   15.60735711442975
P         7.97977977160661    8.36815590882785   16.20878505850560
In       10.90053806978301    0.69936320026574    5.19937176791158
In       10.90143037131076    5.14717267293048    4.83945620407514
P        11.90080159216286    2.94216069522152    5.32011020256309
P        11.11506746709992   -1.65460558627598    5.61177693424531
In        8.31904856358613    1.36469123561121    8.41290477713317
In       10.59769854028654    3.19720367417405   10.63305311432973
In       10.76116595204594    7.77065216675446   10.15069687585276
In        9.09973990141267    5.41258046408090    8.38868738926530
P        10.02663780646114    3.09855284598083    8.21607408013751
P        10.25446746494424    7.53251909612479    7.73630684849751
P        11.50418675650181    5.50243582384132   10.85057618451683
P        11.32236862995564    0.92855910422010   11.26837687545401
In        8.63757235055420   -0.61785145410727   14.14838409241349
In       10.73654920274443    1.58849754822411   16.44158353194348
In       10.57497217551241    6.08690276056814   15.93904550515127
In        8.84362133426480    3.65031426962489   14.26848004477921
P         9.96114435650504    1.42663573288735   14.08632209226626
P         9.68637889185964    5.91173379877920   13.63421953819978
P        11.57629958180559    3.92517709376188   16.65770962686385
P        11.78738569660998   -0.58272248160024   16.92816725533315
In       11.66258683021325    4.91453780014387   21.76495645671364
In        9.45033069189829    2.32285429396802   20.10501226897500
P        10.14272469188128    0.03210927114190   19.89299169672721
P        10.49737429376249    4.49190349066633   19.60508272969362
P        12.72946725799430    2.76226917240092   22.29099748685302
In       11.38731644903246    9.62869699067237    4.45027167053641
P        12.32735023519104   11.88449424862430    4.53066206980967
P        12.08341435472508    7.31184773483029    4.96041743007226
In        9.36317635829976    9.86635677206363    7.82354133306680
In       10.97399565725807   12.33078253516527    9.64239055633385
In       11.15763959612942   16.96368519504935    9.52639289246138
In        9.65097453459647   14.37408700092370    7.33441542920346
P        10.48019601247144   12.02281047747670    7.23422913064639
P        10.66222292521177   16.61177019380819    7.17300398021765
P        11.88574045255721   14.63327325173877    9.82579150563050
P        11.69814952825277   10.06504157195024   10.37780489484198
In        8.79401461753814    8.23026692162177   13.90044006070136
In       10.58865130063626   10.69855119259670   15.44583860082233
In       10.54196765058875   15.21928632852539   14.85177043260288
In        8.77763330789993   12.64140096764575   13.39624533925575
P         9.80040312466896   10.38069557590659   13.10495649974946
P         9.71719307096079   14.77691542844110   12.59323603718848
P        11.43882477081204   13.03084927866966   15.54647695281992
P        11.37621519296664    8.43640850911779   16.09599809804682
In        9.49384985566723    6.75108126219639   19.67329930342856
In       11.18049631106583    9.58159911392789   21.01836954029698
P        10.01440021513275    9.02206182046897   18.94699588370839
P        12.09066766723525    7.35988271748345   21.58713876239896
In       14.66747676397217    0.24703764240009    5.53334642761515
In       14.53524085094746    5.01212388286517    5.20191458820247
In       13.19117850305344    2.69466663052265    3.20284640775227
P        14.08467021223494    0.41051427138803    3.16848567669710
P        14.25683556240188    4.89999068811957    2.74718026677270
P        15.05287064945717    2.67478550569664    5.91136166568623
P        16.91993670159677   -0.61877040930037    5.79816452149579
In       12.30308589031999    0.58584404445389    9.06117695242761
In       13.96407470646433    2.98610048926521   10.79081962913102
In       14.11426000010507    7.62532306329701   10.32176611356821
In       12.47330630792581    5.21855272890897    8.58775643099257
P        13.16442356374444    2.82578426625894    8.44122200116301
P        13.44886718210844    7.42625558564826    7.94528707991983
P        14.78598899136566    5.32676181924163   10.98314675407724
P        14.76967196628716    0.77839000077818   11.52069342759268
In       12.73887789925196   -1.07101630736481   14.74626187030637
In       14.15988677875172    1.76005214305642   16.50716652985183
In       13.98079128618646    6.04730232228693   15.89073592359398
In       12.26208902039605    3.58424000743854   14.29431041420474
P        13.21748102269626    1.29553425433409   14.25787617433223
P        13.07283590090833    5.82579550010719   13.59723433638944
P        15.17538284560522    4.05382593325248   16.79305933657791
P        15.73763944844313   -0.13184962088691   16.70656357705491
In       13.71185202022463   -1.75811499340002   20.19438645553506
In       16.05283509303011    1.20947428215325   21.39004687038438
In       15.16249636995572    5.15390293175262   21.50524679306153
In       13.08152270824459    2.46595075608015   19.88944594171047
P        14.52928268107044    0.45389541084470   19.60753927308074
P        13.85464237118921    4.78325856356122   19.42652525078118
P        16.98267219124100    3.47106713287562   21.44608756650605
In       13.32603115330162    7.21705953831166    2.80658498671786
In       14.75341676133010    9.63328787194122    4.90700994419699
In       16.93303663074650   13.62970993774811    4.08571863954195
In       13.61833841569597   11.84294711976654    2.46235432524674
P        14.32423327526321    9.47748366722170    2.46818551740941
P        16.23315189008307   11.59318017938046    5.14352548879603
P        15.46164928290963    7.30153943024811    5.38995337859001
In       12.73734444846979    9.80846009933356    8.14180889889089
In       14.37938078765395   12.22826100238677    9.90943658164438
In       15.06367007798500   16.92893231531869    9.86329882662427
In       13.11134698160694   14.47064896089389    7.67479572922540
P        13.65547234515867   12.04647984174584    7.55291821803250
P        14.35911592190165   16.58931971415193    7.56545624928103
P        15.32363891757665   14.50733122324917   10.18868899597671
P        15.02391824714020    9.92521859460403   10.59720132274635
In       12.12450085258106    8.12170547187257   13.75532439590516
In       13.94202908252026   10.53454804713969   15.47464625633378
In       14.08344744779347   15.15400953330437   15.05747775801544
In       12.23467354991604   12.71537110954480   13.22389154720621
P        13.06288031129057   10.35643745032315   13.16210759363933
P        13.23313014197830   14.92748005544493   12.77566599611106
P        14.80391252069423   12.86549251584612   15.67698084805319
P        14.95578986407917    8.34335661468087   16.12521363161061
In       12.90712063243388    7.09634826599056   19.26110694231661
In       14.82665964252489    9.00327822339240   21.45856610454415
In       13.62654665868377   10.91736289014649   18.91510385230632
P        14.82019347958033    8.72573608621263   18.97160487319868
P        14.02239722393541   13.29324626363639   18.67249882106498
P        15.14014778774088   11.40013764734343   21.91913192640923
P        16.41629615013978    7.21706756859938   22.10367329816900
In       20.06808434374792    2.19979214771512    6.21253753820568
In       18.54501597082134    5.87505906347586    5.46921055251369
In       16.58600543582403    2.67935645389878    3.96063982413583
P        17.54355520924307    4.89125588081142    3.43252228281126
P        18.93697130086872    4.10629943529585    7.13683118818184
In       15.87128918281013    0.44976771567208    9.37081494368260
In       17.68660224042580    3.14426428201746   10.65865918040657
In       17.57803944755340    7.31944306585846   10.66417030445242
In       15.73202867089283    5.09020057408069    8.70624715395042
P        16.43596290590287    2.71502456069439    8.55194610736143
P        16.90286276019561    7.23632451571676    8.27678122154401
P        18.61288813319712    5.25124120872708   11.65142926657597
P        19.48664534191287    1.62019469454871   10.07586035946009
In       16.65796563138187   -0.55235234520508   14.50634317926366
In       19.15854586877036    2.24713902909979   14.73161779266193
In       17.51537797069632    6.24911322796304   15.71467942233404
In       15.92699023589233    3.51675130303031   14.46592701518887
P        17.14813569914114    1.60173821127289   13.43830714770510
P        16.34721719110652    5.79280791910167   13.56210512865962
P        18.99098628852883    4.28055599315712   16.13148474273037
P        20.51552735766147    0.29325235306254   15.19991097047531
In       18.84396367117917    0.76849658876574   18.87042473914923
In       17.82692795170739    4.33793998889019   19.29163260724513
P        17.14132834946942    2.29600074526096   18.05926604828288
P        16.53026057615945    6.41144766629594   18.91131313317329
In       16.59557627820099    7.17553836675595    3.18438807395067
In       19.77342361846760    9.24647486835479    3.93597924739386
P        17.54236313952500    9.43386812908133    2.97609789355435
P        18.67517334924463    8.30239601959899    5.89420665774720
In       16.14532624533596    9.59736512979650    8.42166814962758
In       17.82712394524403   11.81085553992497   10.46285199394198
In       18.85658865947728   15.89408124882566   10.49474741911163
In       16.56180265889395   14.14058341678187    8.07620674068334
P        17.27914482888480   11.76717519678202    8.04980154785188
P        18.26467529897510   15.90372459315321    8.15062481632168
P        19.25580499048548   13.63816434576598   11.38747522320561
P        18.67355801387708    9.53556294211266   11.05398968713363
In       15.40904689098019    8.09552224434293   13.69543720571763
In       17.33301301799523   10.44089656168082   15.63659694431275
In       17.57498676628646   14.61776477452471   15.41614570961434
In       15.55825581013959   12.50720776227958   13.34224273428990
P        16.58419179767271   10.24205486257438   13.28572666751321
P        16.76679516615379   14.63555627995286   13.11012101656751
P        17.80998120191687   12.58896895205134   16.81801559728259
P        18.52654741759440    8.40027115123100   16.44732398827298
In       17.77354251799355    8.10844171035339   20.22673562918260
In       17.12599000970579   11.77400771002765   20.58410626570048
P        17.73982140541089   10.17879287601274   18.83984628176485
In       20.65725874751652    5.22976562993985   10.25858051571443
P        19.94978790581184    6.74757068985378    8.46251014839447
In       20.53834293377071    5.63187993954346   14.75403501656360
P        19.62447578696565    7.38799283574189   13.28999818988247
In       20.35520960903669    9.00513012299336    9.33582794846285
In       21.26283724294735   12.93549911007032   10.19511105028134
In       20.29720987837358    9.16196151674256   14.87913949069595
In       20.06772376848006   12.43773339223419   15.77325605132653
P        19.75779381835291   11.23460481817706   13.65139239377291
