354
 energy: -24.521490960043 gnorm: 0.000122174389 xtb: 6.4.1 (afa7bdf)
P         0.16855802483595    3.89485197209640   17.02943653378126
P         0.45170848426999    6.93814360920189   13.87426592047838
P         3.51527978432167    3.84238907743642   14.40918946850675
P         6.53802643602863    0.52259281917847   14.12840103662906
In        3.79162906669041    4.24224793035675   18.37026168512173
In        4.32035102276357    1.90145433727478   21.57287295129137
In        1.26252968219811    4.68955968492938   21.19976322796477
P         2.64817333214476    3.30238087740851   22.62584192731861
P         2.17395796241998    5.90877618426593   19.23716798772584
P         4.88904961643323    5.57090197497963   21.87189039395393
P         5.36150802713451    2.67022553455299   19.46095821004435
In        3.28763923732866    2.15460360438891   26.72091886734976
P         2.20899454218561    4.35047767022861   26.65495075407202
P         4.62344916850302    3.71074478313513   29.75555921260886
P         5.48270378772976    1.24506406266957   27.29925208154262
In        3.37041587501347    9.51631901437969   11.67909561490669
In        2.71380805532635    6.17725276109645   14.41323581168661
In        2.52652003254464    9.54301354088852   15.44445183188021
P         3.34294110129616    7.44853849113645   16.45296131416158
P         3.43030304318792   11.02619517825264   13.65600755678437
P         6.06014851683358    9.89757807714850   16.34390386773248
P         4.04002898705551    7.33175765969918   12.63162589196231
In        0.45357961722357    7.55739480840741   18.64964778132463
In        3.32227337307089   10.52678005199343   18.83497947437517
In        3.62730614418455    7.34005620779234   20.72666039000970
In        0.61846091204167   10.50379433113911   21.74247703126964
P         1.99796335264875    8.55210738269770   22.11737142122378
P         1.60390725582083   11.90322335577521   19.96310950373233
P         4.55067636293975   10.67641195048058   22.14217413080418
P         4.84161796187619    8.56979847548089   18.89880891806228
In        1.49041287506982    6.14224729132568   25.19553042085020
In        4.63959972729941    8.42362999237690   24.90440453672540
In        3.61978227702664    5.48354135423953   28.37392236808207
In        2.94412762435806    8.94927025922203   28.23599980868136
P         3.48310652160204    7.34631860475587   30.00356730773732
P         4.02548680246338   10.28988681421847   26.41438294472323
P         5.93899462029626    9.73784900106337   29.94864539229174
P         4.89426539571460    6.54399311484517   26.49076336063840
In        1.90867618966326   12.78377659640007   12.87152968362948
In        4.90302143620360   15.57289767743851   12.75514596278935
In        5.10531433956290   11.96750534774540   15.28605615385621
In        2.29560063526624   15.19880140746393   15.83364976998842
P         3.36661245230568   13.16500472260195   16.59760134816361
P         3.26367964708012   16.70645023163976   14.16900036262082
P         5.95028100530407   15.91140794845184   16.58917882728376
P         6.08951809424216   13.57655401380786   13.61087124694419
In        0.43783773965890   13.96904367599924   19.39277451544872
In        3.61092036296851   16.55966405917575   19.24235452273512
In        3.44086088530104   12.76632249353415   21.45591069833994
In        2.77580445038834   16.22349519914818   22.69260180033223
P         3.51403536780570   14.06922046388141   23.55817573183765
P         3.82715822658208   17.97015440625082   21.27390228149720
P         6.46036706044649   16.04191244561456   23.74071444723018
P         4.37142220117529   14.24967612061232   19.65854546903033
In        1.97991593846145   11.46569797269668   25.72978695741393
In        5.08793493490390   15.12693588319106   26.56141846445323
In        5.28519812432598   11.44009748951429   28.26750377049016
In        2.10965606488185   14.17632751029603   28.75833289780259
P         3.68431172912379   12.61883510875382   29.71959058926868
P         2.90120182249209   16.02075643008266   27.31246597820239
P         5.65536066976628   15.43199368353205   29.86660012749025
P         6.46951671458461   13.07305562059118   26.76973881207659
In        4.80960485340108   17.91171081642163   15.71297952717929
P         3.11732598747511   19.36342423832252   16.72009443262350
P         5.85731739026481   21.79528701007024   17.27631065614639
P         6.04637047095292   19.42265051271428   14.17466645979431
In        2.57950718750953   19.93004795413453   20.47942133314847
In        5.59601431728711   22.33152345359105   21.68419516238456
In        5.56952945392294   18.26748178993986   23.06434076786467
In        2.63972307480590   20.22522936332490   24.30320213725485
P         4.12612445827763   18.46975464081354   25.07268116616162
P         3.87339232928145   22.08844422887614   23.37083520747024
P         6.71199187361870   21.43165988868036   25.33932188985794
P         6.61819460976293   20.07645037252716   21.66211016367386
In        0.90589990388070   16.90656352891337   26.21519131230166
In        3.84782932484660   21.04385630579126   27.96776594642909
In        4.11965889147937   17.19568412864054   29.15587058384022
P         5.28399720645302   19.05620649076200   27.95179318629209
In        9.07553802455175    3.29493584789457   11.49698970861024
In        9.01284554568078    2.90078436010002   15.32689939384246
In        5.75932859643658    2.81571014049111   14.47678771229463
P         6.96630986628985    3.73655033246288   16.45190902162432
P         7.05940989789762    4.03497479543377   12.71614682112463
P         9.68893701837798    6.02261940629487   16.17744347777381
P        10.57826294204176    3.51030189098242   13.45883169140035
In        6.81380967388171    0.85298154186342   18.71535909587186
In       10.00531753524437    3.37691786994598   19.00784767972183
In        8.92926245180643    1.94008644075180   22.54774054003099
In        6.70664320191416    4.42454825817742   20.65513053240618
P         8.25082884246589    4.27918453635225   22.56602743210793
P         8.22481944091086    5.10327567967494   18.74432358290147
P        10.82025608237822    6.58472720889613   22.40474143799115
P        10.88313769855114    2.49400941775267   21.13499574780359
In        7.19872151829330    0.50662518625404   25.76484851522093
In        9.99491995884548    3.60627807813836   25.79061612223237
In       10.36006469159561    2.70205102116654   29.56936338761899
In        6.71332101362748    2.78686319681631   28.83426831202869
P         8.26967911299927    3.27204592028348   30.70708075894655
P         7.81664736236541    3.94414652427762   26.90685381520900
P        10.59561854935935    5.93211528693747   30.37496840920162
P        11.69034071704163    3.37683182877484   27.56954017542760
P        10.95008148372888    8.15712251704464    8.66837262284965
In        5.49447737796541    5.61151635139483   11.63717927001496
In        8.24095244284864    8.47401014183699   11.37268192965632
In        8.16818335492610    5.68305844608148   14.24308390733493
In        5.39992882298019    8.62106687141536   14.30295763043751
P         6.01229883858438    6.40220032886942   15.22837169001119
P         6.51751338193589    9.87095780225070   12.45492491865813
P         8.72183033231855    8.84028279681436   15.02006967470322
P         9.53331855901124    6.63092281105641   12.38609160684698
In        6.69381678258448    7.02369621240578   18.32211430860324
In        9.22366392416268    9.50005269059590   18.14370828499305
In        9.30718627521918    6.61674537065324   20.46602707298079
In        6.24623560603446    9.54180913731564   20.76547566111513
P         7.34222669928034    7.51671075521749   21.67886038359939
P         7.33932478704915   10.88423324678636   18.93293764106387
P         9.74862791976322    9.73020470255246   21.66214255366480
P        10.70940872734836    7.57089318149588   18.59771051192681
In        5.91239552953973    4.54714860998580   25.46751263434907
In        8.42485167002022    7.50630170818516   25.24152980511479
In        9.06139517840707    5.44950036252628   28.48957217285616
In        6.02386725973686    8.06659210711084   28.12928732690304
P         6.89657721081503    6.16279320235740   29.42252818841532
P         7.29331392871198    9.36686839195417   26.40740612421008
P         9.24990575721230    8.80237853841546   29.23021620263739
P        10.25372911033792    6.71693666547470   26.69575119970888
In        9.67961477782365    9.39054749414161   32.95890052725625
P         7.97240961188679   11.35227655410882    8.81064164547522
In        5.80228128774959   12.09781570949738   11.64026461163146
In        8.53050072521870   14.72758678548379   11.59410476666658
In        8.01236409599649   11.04783018723015   14.12994185197526
In        7.62030023200623   14.59459477563748   15.31687086015350
P         8.39719522955914   12.38825427510804   16.19924208739333
P         8.73983902575947   16.11289055831778   13.64342377922871
P        11.05143073938764   14.74513502970791   16.39197245619780
P         9.13477361785704   12.47646710663974   12.41530884175254
In        6.30388151317299   13.10657728931856   18.66366028549071
In        8.89506123335541   15.44685682797763   18.87956476285907
In        8.69221639684025   11.82527543950256   20.86624917129665
In        5.79598457912336   15.16753614363992   21.51736517211341
P         6.80375554084685   12.95608979767817   21.99978866358945
P         6.94158661869145   16.62679369599365   19.83824059673388
P         9.23779531680814   15.02860714159270   22.18923116190517
P         9.86697428855442   13.17918097754255   19.09565942675402
In        6.88143663257541   11.37432514266390   25.01422221679937
In        9.21688922612637   14.47433201433410   25.44044091784710
In        8.43177825970609   10.83165100327993   28.10724726373835
In        7.47890637484503   14.16143339539898   28.79897895427062
P         8.22081596705937   12.21990985215106   30.14142381459786
P         8.61208040865286   15.88879814558696   27.37203416496929
P        10.50635318291117   14.68951745768324   30.58038263805887
P         9.67414266325714   12.28918943058758   26.50101374529265
In        7.56110767002197   14.30968872499349   33.43347113808355
In        7.71703535733708   18.22906359878299   12.86257535216327
In       10.51305900474966   20.79225821925213   13.29209457046685
In       10.27586485002805   16.93929154168167   15.45834457080224
In        7.37730390335915   20.26932444692019   16.09978962080531
P         8.58329957580651   18.21522983630741   16.74739557605810
P         8.87022518515519   21.73667851918031   14.79501423233258
P        11.34596571430868   20.69122798594474   17.03370251623324
P        11.39994337911270   18.54521991010821   13.86382917672017
In        6.29786779972006   18.98500946194140   19.46255382827554
In        8.96055308394456   21.34453057016230   19.86874708694248
In        8.41702109272514   17.33071563799657   21.76559056004537
In        8.17680660426803   20.65279779514683   23.54223865360847
P         8.81658801590184   18.29997894247750   24.01614143192406
P         9.32633606597342   22.29718272268002   22.08102474164680
P        11.58459854693749   20.76829178225099   24.29088023288130
P         9.54508684809774   18.97051855267097   20.25638396014471
In        7.35386991057995   17.99809703074834   27.12221345292792
In        9.74217608968455   20.82780909902143   27.64260639026416
In        9.73645531410269   16.74632629837274   29.44299483963231
In        6.47043028090592   19.52804171472519   30.11402322338647
P         7.88579832886374   17.65454600794870   30.78098561856288
P         7.81268943199069   21.26179756418671   29.03003495092972
P        10.04899218727858   20.32791986446307   31.81390384645147
P        10.77348262961362   18.65217226760091   28.18357692504839
In       11.88953077799007    1.42635201384843   13.50259926641363
In       14.96227442224458    4.37745968339993   12.85683863636104
In       14.65871237991756    1.97613228427624   16.22058537559371
In       11.70130300111606    5.12475428607783   15.02840543739891
P        12.88226898851145    3.58314492939039   16.55085238437724
P        13.29101948067758    6.12653308576094   13.35964280244903
P        15.44322706905827    6.01631020239412   16.47045325547690
P        16.03724741929626    2.78917733024260   14.36978768547899
In       12.70155173173013    0.86917493042209   21.07881582492652
In       15.43308924357558    3.55797908841143   19.88488564355935
In       15.47642028061304    2.84821298249103   23.62649433008960
In       11.84000993963577    4.33383810700151   22.55501382005457
P        13.37769399651068    3.77227030800719   24.41388415149200
P        13.50289176572169    4.81295173942359   20.74949787258450
P        15.87465991952077    6.53514701478685   24.37685467987287
P        16.93133668973010    3.78633969428117   21.85177432773497
In       13.00586860391372    1.32309789702154   27.34015190457413
In       15.65739087131406    4.40542591085675   27.29865153520421
In       15.40900839190572    2.29427951277452   30.49954067845744
In       12.53689646802808    5.30400030853744   28.95344316297183
P        13.91054285711739    4.18325953216119   30.66092907082233
P        14.01118583699887    6.23132390664039   27.13794725592882
P        16.33424004576387    6.49725438427984   30.15906383942137
P        16.96971216404535    2.82797527027738   28.66069868821574
P        15.15994839391871    5.66772924129778    8.88306693268675
In       11.72544166691725    5.95346678514802   11.44836947630611
In       14.31270083455465    8.55435907114271   11.37129870115110
In       14.22688629722129    7.67046963475861   15.09965682646940
In       10.85452126157670    8.06535117458406   14.00208976654095
P        12.12123591714375    8.59441075344937   16.09410910391767
P        12.13238091821809    9.31608048236754   12.25084830841176
P        14.75030719889446   10.81657769637215   16.13433730057551
P        15.78426399810069    8.61949850659258   13.36175144092265
In       12.72428006045120    6.15080333710520   18.83697946167120
In       15.30484803380829    8.53021874345709   18.93198327453418
In       14.47334031521411    6.48146336355651   22.34291268279336
In       11.75590577039559    8.98468967460601   20.42074943925890
P        13.38701535120229    8.70449333723809   22.24839960233194
P        13.24244377801531    9.87891203922488   18.58154264317394
P        15.96791096996169   10.89941558844660   22.18584313944835
P        16.20198507402108    6.94509761254123   20.60090923100237
In       12.36628293402115    6.84638881882984   25.40451682912031
In       14.66499254302954    9.68404655618657   25.34527169166720
In       14.86993259622246    7.92205502988910   28.78083415013476
In       11.45446494839272    8.26920584097504   28.27298126064503
P        12.94166843508871    8.46515262969794   30.24302176905421
P        12.53117697755736    9.77960644144529   26.59720722380392
P        15.32050806719354   11.10693025563423   30.31157162353380
P        16.31222256302308    9.14443135395081   27.10683398375414
In       15.26641918713166    8.43358284275391   33.47879094563789
P        13.77498688167472   11.07218636193163    8.63721288260725
In       11.01112241590504   11.30968919931330   11.31271917492460
In       13.76875168324251   13.91500854875753   11.69225085189239
In       13.35090109025841   10.58429849511880   14.07778736850383
In       10.48740839904976   13.57380806793347   14.25801044569268
P        11.18687722832648   11.32785256744483   15.04112713754219
P        11.72124834675186   14.98418375052245   12.61789962674388
P        13.80990977714979   13.68124335797277   15.19476893085380
P        14.78103013526433   11.75717681441975   12.39859106000630
In       11.74600062913827   11.83507531687992   18.21601885418081
In       14.19974975885373   14.24381068058959   18.42421966625026
In       14.25606578510302   11.27602894139269   20.45016648602856
In       11.20648309222719   14.02256238340521   21.07295855538566
P        12.29488466109287   11.92506272799071   21.80652618883710
P        12.44232605897960   15.57253096072728   19.53635056645450
P        14.81787065599343   14.13058071841187   22.04678736082221
P        15.77506725735017   12.35493004896242   18.76001033074446
In       10.77300130811541   10.60200921771140   25.08373158684534
In       13.20548310129289   13.58478157217105   25.42581366506095
In       13.80436027720820   11.03799558027832   28.36294470165686
In       10.74479615595763   13.53168736418132   28.40860257941652
P        11.60838949613234   11.45495464620058   29.40850650085813
P        12.04649613715383   15.11036977668478   26.97343644607501
P        14.03023694436975   14.12219353596537   29.67473057035686
P        14.99725292162905   12.52591336193733   26.74779994463140
In       12.86522673838708   12.75609513664958   33.20327960202940
In       11.23516007666757   17.25035607233219   11.75231560288752
In       13.88078323686360   19.70853587886274   12.01548918483583
In       13.19341291304096   15.94969168085944   14.42525383786733
In       12.92933383046077   19.42161952929350   15.66018476803287
P        13.60627524328726   17.19906836181277   16.52796377462208
P        14.03289721398324   20.98392355233901   14.08794362333692
P        17.79970280512599   19.38589317532459   13.37644123195202
P        14.39815967416633   17.42714437858782   12.82288120161930
In       11.45196815801618   17.80484900892062   19.20214500644142
In       14.26693260162563   20.13504900147381   19.58852727011624
In       13.75396815872660   16.31068315101608   21.55949135437532
In       11.07235671860010   19.55005214409512   22.19659389676795
P        11.75669028424954   17.22148651446017   22.68963799092456
P        12.27965864186961   21.04468537801865   20.64355491516306
P        14.38937990327878   19.50301631566881   23.36291504643178
P        15.12770168230267   17.91138269952314   20.19779628026660
In       11.40308701646139   17.35507154891500   26.18084550858780
In       13.86326378833639   20.11076075744720   27.14147939265674
In       12.99313791413103   16.25419781720876   29.00744704904704
In       11.78479780456152   19.41071572954052   30.35870482762364
P        12.51900170953629   17.22481361554413   31.23599978559671
P        13.10316927222849   21.14130368397704   29.19505759686463
P        14.58878474789367   17.91293016234426   28.00952966124853
In       17.22855954339585    4.48550364776711   15.75991779487272
P        18.40334127273136    3.03726900653147   17.33958168447039
P        18.68898641472952    5.45908411696900   13.99900026959606
P        21.16503499558824    5.37530453929782   17.19124918152457
In       18.85208061195271    2.38815695976977   21.24428423411915
In       21.84227689876911    5.24040570946442   21.41837479569879
In       20.63129996321870    2.88656455286319   24.57684050717626
In       17.89323736614912    5.60847591700446   23.29223305104173
P        18.71522313673414    4.23080482281901   25.17990380790751
P        19.70146407254842    6.43470636462524   21.75620787021504
P        21.55856230689139    6.70832706858801   25.07907193064164
P        22.42833690165556    3.65057692160160   23.14935220393358
In       18.00359480285289    1.08097761882373   27.31115763703673
In       21.53411094489817    4.22753448652740   28.13270873733233
In       18.01690982848674    4.75052660475038   29.86527270060142
P        19.59221581564693    5.71167043275582   28.16872007993059
In       17.66577037559010    7.19455671203745   12.62595895368843
In       20.46897281180567    9.85812934536446   12.69094050495993
In       19.81836438396384    6.82243348585787   15.74760774699372
In       16.88562812378735   10.00176078465098   15.14418128489403
P        17.97204052911207    8.25777533028860   16.51183866389104
P        18.39175245746003   11.01015194253471   13.39517627153918
P        20.64813059670765   10.64786893899550   16.45868341598393
P        21.21572733338670    8.08300632239711   14.15329701002321
In       18.33275613679063    6.06027203753915   19.73191423194613
In       21.05663251673892    8.42880306687717   19.64144383779577
In       20.64153642920174    8.14343310736322   23.32048468225792
In       17.12696356082096    8.71151837188220   22.14110864879995
P        18.47139005493437    8.93084551226787   24.20493783508615
P        18.85930526075088    9.25262995400139   20.42727130891761
P        21.13522568504053   11.66265335448633   23.91351462122188
P        22.28651904900845    8.99848425068264   21.67168504505658
In       17.90902895121928    7.24961224984749   27.23333256788233
In       20.84228248054404    9.77367620412839   27.11033745228031
In       20.25469847384928    7.28136040860563   30.00892553666687
In       17.28303519520585   10.58849941544043   28.89788918118681
P        18.55512831711361    9.01230390477548   30.29728669706584
P        18.90969263136413   11.29903674869273   27.10456827950808
P        21.18488070633245   11.57309846242559   30.40158708794641
P        22.00570435858974    8.29493177348841   28.62700021219041
In       16.92447378531991   11.03226814822514   11.39769107231787
In       19.56991149896469   13.43442916525093   11.55727328732521
In       19.50327844085688   12.39027586963537   15.17514507400134
In       15.98428126229179   12.98893462250314   14.23762308697947
P        17.43030618912115   13.25758337862857   16.23913659989518
P        17.45256569116119   14.17201532748490   12.60659596713862
P        20.16066771644838   16.35029696265644   16.08391505895577
P        21.02881230173942   13.39661777900852   13.50920828623009
In       17.82889990007241   10.97923228760565   18.98259912779866
In       20.47686890304144   13.67249679762750   18.78569869582483
In       19.81072845449023   11.08998392157972   21.90858272428995
In       16.78490302172564   13.75160269359393   20.60100726698246
P        18.41952418047583   13.09407504523462   22.31156921740729
P        18.33173990699613   14.89239219218725   18.96588743805749
P        21.20823139176379   15.38295391552677   22.03218773322158
P        21.29108931994971   11.76927147639571   20.05412667713331
In       17.11500136642040   12.04165021722998   25.57375848182959
In       19.26038525482806   14.92149348050085   25.49975683603387
In       19.76499633432661   12.86670669440709   28.88590093909817
In       16.20561630327504   13.80930149483681   28.54406297105850
P        17.86222042664737   13.46687458107082   30.34461396538101
P        17.50801919720482   15.46433343888315   27.16573403779919
P        20.91161968711899   13.99098169665327   27.00766203234975
In       16.37001642241191   16.27638374654459   11.84362670246161
In       18.64425531197949   15.53930605696132   14.35115878312289
In       15.94142647274464   18.37687701292130   14.56793062728959
P        16.47514709451606   16.11166320050117   15.37825442981990
In       16.64613668166203   16.69744575248872   18.67726521812552
In       18.14608363209249   19.91464886222931   18.88581070087822
In       19.18521301813527   16.23553916118660   20.94148225546336
In       16.35434417514481   18.53299695312745   22.30492549503373
P        17.34149161620814   16.29405246607957   22.57560421771207
P        17.58402069248365   20.35712927961996   21.19910476139170
P        19.63842082253663   18.05663146902819   19.33575800947937
In       15.54361292754787   16.58223783275063   26.15889841400219
In       18.69787468509735   19.59234060959048   25.45790272107227
In       18.89683400185670   16.66528095875197   28.79442351356163
In       15.74937419315236   18.52372087360281   30.08282681601953
