132
 energy: -9.492127790344 gnorm: 0.000123299547 xtb: 6.4.1 (afa7bdf)
In        4.32675600369123    3.41351726382766   11.07607013360708
In        4.82455771859630    7.69370164887676   10.17425705896975
P         3.48572033934058    3.71288031377458    8.82182231530746
P         4.03535466573909    7.33993059582449    7.88289296383400
P         5.57765093387708    5.56253366149236   11.24488036156536
P         5.00547376649718    1.23932519696814   12.03199989182085
In        2.64005906345929   -0.36673726285598   14.99781042054395
In        4.65609862309711    2.00199128491863   17.21476281598223
In        4.30900078624326    6.48619120176397   16.44059594143670
In        2.54142526526281    3.95478882449448   14.46240817389633
P         3.69557159087632    1.82632319813048   14.92913328053623
P         3.66624091053570    6.12034534904425   14.07203491927964
P         5.37551244786447    4.39206879131019   17.28426717592317
P         5.89018326071496   -0.02460831864144   17.90625580906285
In        6.36388134721407    0.81892019766150   23.05481595678929
In        5.31518169543839    5.21678027380248   22.56198444546095
In        3.53993521183733    2.55340950879952   20.77130893200340
P         4.98707912764194    0.61242992916663   21.02942137941576
P         4.43311094410359    4.80336236925782   20.27487174335474
P         6.77917427666802    3.27348593991066   23.08885408175521
P         7.91536051334482   -1.07160174704261   23.32693873201319
In        4.02910940564292    9.59786442422624    6.98649680365966
In        5.59344585358496   12.23284626505887    9.47152100172273
In        6.06791883246602   16.57838496515603    9.57095413205725
P         5.10924695951802   11.77090247140469    7.11510075015755
P         6.85997192142417   14.31457021213513    9.99249822266117
P         5.94131051367124    9.92124417463114   10.34846479862226
In        2.72332776288431    8.28753221554365   13.35758093658103
In        4.43216340358410   10.89784349147169   15.43574325673672
In        4.68661295553872   15.38031558290724   14.87325039195091
In        3.16855229153168   12.62537235410967   12.40236626998434
P         3.98027729371722   10.39081165532320   13.04659592583534
P         4.27653658781718   14.78353763258889   12.55391962732515
P         5.44223166440944   13.16027037533304   15.61636178873413
P         5.26807223461387    8.78806426107547   16.48456179886338
In        3.22915272209551    6.93753049786621   19.92238783061172
In        4.59836823170500    9.60845921336555   21.75513229061587
In        2.66055574189813   11.21099454592851   18.87298365359963
P         4.03065554758828    9.21622585957489   19.36158537074109
P         3.14948007929731   13.48577361628144   18.26304782564899
P         5.21025011227334   11.98798457495375   21.66631599106040
P         5.91664241673884    7.62536600073893   22.47223888514051
In        5.98139254091507    0.67991904589731    9.86373787905501
In        7.73907523326258    3.07073993756310   11.63904594866613
In        8.05912512637875    7.56099086255378   10.88697516529605
In        6.66108602970674    5.00138246612518    9.07300285994955
P         7.37677541008877    2.61584945786885    9.22588968519184
P         7.83814971405483    7.10438775738883    8.46166777041793
P         8.82968376227237    5.31283823403016   11.60437523357951
P         8.45806157194717    0.84262279050844   12.41905052202446
In        6.60077470156695   -0.64020935675267   15.66100183994576
In        8.02166073416836    2.36909087393118   17.17787603894899
In        7.73977295161440    6.52380138686512   16.56998813119813
In        6.08869100147110    4.00905458370220   14.93667126018934
P         6.99984460764318    1.70420589332814   15.01344006453485
P         7.20322549540173    6.08797035877233   14.19039952629410
P         9.18166390025038    4.56985946490820   17.06265572755342
P         9.60875467480829    0.54549991842948   17.64172027151930
In        8.45486722696701   -1.46956513204913   20.99289380589249
In        9.68429612673263    1.63933922389258   22.60664239844368
In        8.91239492910445    5.70690050123969   22.18935846286312
In        7.18893743995085    3.05176089074326   20.65924120325310
P         8.48392376939681    0.94460722130956   20.54482476306308
P         7.96708424952854    5.28993417415016   19.93083444559811
P        10.62440459989488    3.92212606494725   22.36005010929985
P        11.49535692328753   -0.01916163994862   22.55141812723316
In        7.25863177734473    9.51606083977209    8.28014082521293
In        8.76525596537642   11.73904423123533   10.45909119422399
In       10.10293835451926   16.26153342583471   10.27925622527651
In        8.32120804126468   13.98684170936368    8.00623567877559
P         8.68619524769110   11.53081332627155    7.99621293780373
P         9.87005869975328   15.89063173989256    7.89685196503262
P        10.06304257826125   13.84539718653329   10.74788770591917
P         9.60955500199058    9.48823777278539   11.06292831447729
In        6.18162086501720    8.34139278562333   14.21862155435603
In        7.72438807063926   10.80167286468274   15.99444034665528
In        8.64772953188939   15.38383653729804   15.33447100324739
In        6.71370005528085   12.81533886179968   13.51902031207715
P         7.35356433725763   10.42174933436243   13.57324179878112
P         7.96646478428557   14.88022995694705   13.05660769446151
P         8.77399057906350   13.05159060205616   16.11071179528994
P         8.86221365265056    8.73819355055705   16.76241065533885
In        6.56193541935817    7.32532539484391   20.10597970995807
In        8.04866192848522    9.99719390745739   21.76624681080781
In        7.71712865936858   14.60228483154799   20.80882418972609
In        6.18906377568539   11.84320770805496   19.42870786980419
P         7.26691192458556    9.60658721324557   19.43698946495844
P         6.95347225262635   14.02238824733019   18.56395832934976
P         8.48532981614312   12.44387056377756   21.72051065951165
P         9.58224334236193    8.09680123912187   22.21570285914507
In        9.58712194954493    0.06934424788666   10.40968398112663
In       12.77244665082673    2.18433389808685   10.41697450621028
In       12.87647926329187    5.83467293282326   10.59028647045010
In        9.93219549624507    4.70700442925466    9.46306363915499
P        10.40769416932245    2.28195911235154    9.71182716701414
P        11.46936400202176    6.48515370396647    8.66758511345834
P        12.05519917663411    3.94323397627223   11.98603448420794
In       10.48599409507717    0.11318815813705   15.42521738991580
In       13.23853077617019    2.55165059997523   15.07401261747341
In       12.69364774198065    6.19576445930909   15.37286025784510
In        9.93952088676228    4.01020212071593   14.77069875902616
P        11.11227546743965    1.95429333815971   13.92298937622599
P        10.94020358844780    5.99741301100112   13.61239697799273
P        12.47731363081585    4.16177163718118   16.79495357882344
P        14.10674346844305    0.56532802309695   16.17880723359539
In       12.07958068259812    0.03996285500830   20.20605286449575
In       14.41292698035359    2.90793085923898   19.54989799854304
In       13.21087112686304    6.68229670335107   20.15246325363712
In       10.82052793026119    3.74435252901147   19.91126113077699
P        12.25852908372080    2.03108184427097   18.74938623542042
P        11.32571960161519    5.91786245268133   18.72546094134225
In       10.68962203684143    8.82480076463644    8.93743320080385
In       13.44086991199339    9.64797843272436   10.51492326613480
In       14.63241041190638   13.24026346178843   11.61874033767627
In       11.52733956196255   13.00828497762727    8.92812681722419
P        12.29128128438117   10.68552251906455    8.57437709490601
P        12.75428293852220   11.72539240577980   11.66574576818987
P        12.39564362088112    7.87932145100851   11.89610023366275
In        9.91133676114234    8.08301117641779   14.61124547218937
In       12.52656932563147   10.15279379065002   15.56953904958237
In       12.60053609472136   14.11890613739183   15.68301378244823
In       10.06079233264056   12.16776731763345   14.17491854854271
P        11.11712677528243    9.98762919809720   13.51276401238624
P        11.46144680503511   14.09677192721072   13.53933305241894
P        11.85951860050300   12.13609316964013   16.90485411270886
P        12.16018461535867    8.08013849241486   16.89840462283529
In       10.12779557605350    7.86406879703780   19.82259348482008
In       12.60282628457082   10.60239559319580   20.28465506676417
In        9.57053117775897   12.01356161308622   19.52929182095413
P        10.81801402681253    9.99619578739794   18.66040960630078
P        10.87595092935001   14.07705324374825   19.52051866925731
P        12.87801175386699    8.58734743152361   21.62339277849928
