100
 energy: -6.563608413320 gnorm: 0.000743407893 xtb: 6.4.1 (afa7bdf)
P         4.58782314320248    5.26019008872661    6.12827047523368
In        4.29543814660591    7.12044601473671    4.60886162334336
P         6.67977667540001   10.90813037131114    6.56799957354404
P         6.15123411893634    7.97479861887902    3.25614222788689
In        3.91189058955934    8.01437086907414    9.18576955024102
P         4.14812481446332    9.41505651130363   13.39590517071736
P         4.99023230586536    6.42739419868178   10.65779275723634
In        4.31228485909515   11.06478627711749    6.19039146714742
P         5.72356211115932   13.07339114000700    9.08345860495489
In        9.50493224535521    3.02168100990043    3.08642672783807
In        9.99653845157419    2.27524622798137    6.88445150702987
In        5.99157645602081    3.38059267645858    5.44731927990036
P         7.66778034176312    2.87199278179070    7.15016365675678
P         7.47196394681645    4.28710735366852    3.66411777521446
P         9.87705996914143    5.75460073536037    7.42486084522335
P        11.08785758799661    3.25018682414363    4.92904449808395
In        9.95083198937365    2.89898363229252   10.98139613050406
In        7.36053378063226    4.01628421622272   13.52551762911729
P         8.62471061317047    4.90409841789960   11.61319443593273
P        10.97037238070780    6.36675511119740   14.32854806915089
P        10.37291022698695    1.92682778283918   13.19693190417548
In        6.87910594321725    6.00554830705338    1.99698485789662
In        9.27221768864224    8.82868339788290    2.11173715106682
In        8.36777304150528    5.79456426948368    5.45980271742804
In        7.48078571935106    9.19758956034700    4.96641646633627
P         7.03078846645858    7.47403752225604    6.68423403449145
P         8.54361701743565   10.84527465654277    3.36632706441528
P         9.74817714707449   10.55166558750674    6.82283153685631
P         9.77013603408329    7.10472371218389    3.84388892376286
In        7.00856594750984    5.35603607983985    9.80651731241914
In        8.78985923678096    8.63880417809937    9.40078846275454
In        9.37185611859485    7.08989815382183   12.59488989098876
In        5.72034297133948    7.68324079737400   12.68348578777508
P         7.60604556810333    7.56221584952292   14.27644319736259
P         7.13215983594792    9.08246401105076   11.16996757326187
P        10.55389535659224    9.55274066381226   14.27503183947227
P        10.78854568721194    8.10247761972380   10.74694792196244
In        6.42424930440078   11.88410287795390    2.71008690626633
In        9.22750202333382   14.93046316595500    2.61298090213324
In        9.85810984805581   12.22179222636900    4.99079011480639
In        6.90382877689679   14.90907879724486    5.95495593610291
P         9.10362122852072   14.08022690254053    6.43916631941792
P        11.08267677081523   16.92893764857349    5.72521720379798
P        11.17456186828750   13.64728736792269    3.36422743892037
In        5.91717164908007   11.09889144059917   10.43216521686773
In        9.19314822180301   13.48082458473589   10.55852397775828
In        8.69663638575862   10.22989389827258   12.77151896832576
P         7.44780117746327   12.06420894829496   13.80102665642702
P         9.88558324691529   14.90407592234092   12.36251590960483
P        10.09331893250476   11.19202673286580   10.93013289928439
In       14.64581604714616    4.13487671073956    3.83699930487548
In       14.00368614740711    2.81843316198882    7.80255066911404
In       11.78954910641924    5.42180077114758    5.89561964175604
P        13.46618287059806    5.15668367964882    7.69137453837439
P        13.33413878826156    6.19081048599634    4.05891327129786
P        16.05725825393428    7.68728875868428    7.03065412598321
In       11.31060827667417   -0.02289187937116   14.28386205376281
In       13.59677626607178    2.00299120324302   11.72248782713896
In       11.38543820100289    3.93428657566484   14.26710890912742
P        13.12463532222460    3.23309529282210   15.82980456493884
P        12.66322223805586    4.24173529402969   12.13799495951351
P        16.38751427149590    4.54740827711783   14.53513910637227
P        15.32053582696386    1.19931552802148   13.18209275196180
In       11.49215537724538    6.04363350935396    2.40961877401715
In       13.55164540023718    8.91797587790002    2.26389995253162
In       14.19101481232932    8.08172044786324    5.45101494112362
In       10.70151447694133    8.56966892824282    5.66271362042731
P        12.53579784814960    8.20306390743671    7.31184236359891
P        11.88218182337573    9.85656201865768    3.86665349364157
P        14.91493997649576   10.71704126383117    7.18225945966638
P        15.56614796131095    9.27066199338589    3.68785816676528
In       11.66177508757452    5.79097004313549   10.50594109026026
In       14.61890154305863    7.73149411997862   10.27497846841497
In       14.53109124920831    5.48970250756899   13.25859388223703
In       12.25107542036554    9.05122503828834   12.53300151612653
P        13.93508184023681    7.80980288524106   13.82931931817064
P        13.79659931502325   10.00837399061029   10.78555643648126
P        16.82821782988223    8.90981550340076   13.09692000170912
P        15.60680323252420    5.58930130363493   10.99695026929720
In       11.41821088002770   11.53700932871548    2.06902716501764
In       13.01426918183583   11.24918746714859    5.65413668111809
In       12.26322708815455   14.86481716785305    5.24121451329825
P        12.08157557000405   13.14748870020439    6.99049131604517
P        14.21923026617026   12.39101692987960    3.85843957682292
In       11.97217164383313   10.84904769585542    9.36032831193592
In       14.83568743070312   13.31847287665436    9.89607269721973
In       15.30173654349073   10.79689732457214   12.62368713549987
In       11.80822849955116   12.13346554434826   12.54411218600803
P        13.49366637595821   11.41984346583507   14.20100091307278
P        12.74045595465728   13.80305042108762   11.00564653769814
P        16.64180778134217   12.02136136208876   10.90716509864511
In       17.10390556922313    5.54795358167488    6.69652287721037
P        19.21214221770533    4.64366895300457    9.77385302406440
In       17.04876579033069    7.39466092777212    3.15576653785379
In       16.66022453020644   10.64440772527853    5.45422383424773
P        18.74721869470941    9.57388606367172    6.10439347691619
In       17.07512539355139    3.71471836293911   10.36059093214216
In       17.54487242040147    6.90637969705479   11.88474625813279
P        18.20225170707126    7.75135261743857    9.67319702318688
In       17.60228068334328   10.10014584893162    9.74149332797642
