56
 energy: -3.625554422857 gnorm: 0.000131120998 xtb: 6.4.1 (afa7bdf)
In        3.47241863974046    7.65116984953680    4.67507485701469
In        2.70387869520820    7.55754913101483    9.28254264100537
P         0.73402192869419    7.50725560859082    7.86208898582265
P         1.14575917547151    7.30750224413302   13.30587378968976
In       -0.17895134076638   10.41767219502719    3.74914650398211
In        3.56332070641472   11.25043620834805    4.77670985962121
In        4.15275540242301   14.81268175044802    5.19498881906532
In        1.49964374842920   13.97321934534317    2.92037270278156
P         1.83860663271238   11.54438189577396    3.02884599601316
P         3.86742342801522   14.57327660789673    2.76215761870749
P         2.66325500814553   13.08178106734884    6.17999943145322
P         2.42201899929264    9.39840584182704    5.98231274625500
In       -0.51902224343445    9.50389924770099    8.48924895792428
In        2.71077451226541   11.20214819814266    9.31759986610924
In        3.08089167977927   14.92322761003602    9.39773648580516
In       -0.18448112665070   13.18335196588362    8.76123656353618
P         0.93078669486042   11.29430489004992    7.56854285705710
P         1.23019030357906   14.95748911438513    7.73220712299022
P         2.31360136601130   13.08920507094258   10.89180343998086
P         2.13447823613052    9.33733567833822   10.85237258417428
In        0.62965941549610    9.42627608624471   14.32856794619873
In        3.76667617862168   11.12977591429305   13.57693653747099
In        3.97558460451461   14.79701736389527   13.86155716526765
In        0.82259314650330   13.16494479741039   14.36203001641601
P         1.38475861138897   11.26336623507051   12.84930989177553
P         1.67966213351791   14.99493177341810   12.90661503482802
P         4.00919554476235   12.82719083404905   15.32566035637550
P         4.55142174561622    8.88384397138725   14.04494394750989
In        4.41200337275587   16.64624677401332    1.59415938947001
In        4.35441743441751   18.40170795821546    5.16279246958447
In        2.20341657213398   21.78216042189172    4.53548697082155
In        1.01026522089878   18.11065397426241    3.72244557875422
P         3.30766459465723   18.36148191081994    2.93294005494156
P         0.25774094688759   20.29628587393468    4.45540026262114
P         3.41774119918960   20.43280762924596    6.18887661533753
P         2.97443029758500   16.69774359361955    6.31006264306862
In        0.05869325355845   16.82281819500663    8.89748767921417
In        3.29134999342890   18.65531442915182    9.43783234635733
In        3.01428671689878   22.43195860592636    9.11194977767106
In        0.12547123023648   20.31763318811599    9.00246382128128
P         1.43503150608051   18.58239271401359    7.79568303022430
P         1.05803273481646   22.15042613690539    7.59858673583804
P         2.71281476527085   20.64981289287289   10.80023782907462
P         2.61979299416301   16.81230918878849   10.95209104416140
In        1.19343600154727   16.92335904605439   14.41476346554149
In        4.23765385497547   18.70027123116904   13.77122199226917
In        4.11777088591210   22.61511689632119   13.46576916339609
In        1.24358845632452   20.61410221330023   14.39221038061102
P         1.91428065317880   18.75725540120895   12.88156267355049
P         1.71973100119551   22.53453263854148   12.89005246812745
P         4.57375421170153   20.79301536434621   15.00036583763174
P         4.40183770370083   16.76465915543217   15.26400400984735
P         2.23946793809615   24.07782680266133    5.35120812402080
In       -0.61478400499219   23.76100925826454    8.36691559540462
P         2.64050015829408   24.53150487646668   10.27947429090739
In        0.77001848036215   24.25035313291326   14.34315302545523
