258
 energy: -18.848606333565 gnorm: 0.000154118685 xtb: 6.4.1 (afa7bdf)
In        6.99669384017685    6.89261078214032   11.57290478567315
P         8.08786802524332    4.73364570336238   11.86586746372168
In        7.50058640141347    5.81089193644012   17.84533826307396
P         8.62353258391774    3.66102508798501   18.06930970054447
P         8.96762441540430   15.02698006972501    4.15907661079650
P         7.91957412380480   10.80605480159973    4.94753676176852
In        7.18607314899609   11.28339607054460   10.34611552168885
In        7.04304702508918   15.79480867780145    9.65096459531421
P         8.04045408617525   13.59412244311843   10.14727413007034
P         8.02598181077036    9.08053266249872   11.09723533322752
In        7.39154738878709    9.96439509654345   16.34374494779073
In        7.03082514926425   14.18581898674219   15.41464472788461
P         6.38118703126870    9.62741107581897   14.16468913477711
P         6.21579909140934   13.78988029229799   13.16267895447606
P         8.34566323774633   12.27364824645964   16.34600827237773
P         8.56906359743500    7.94918609473462   17.23958931446345
P         8.17014744603264   17.87737464630238    9.08173877613779
P         7.74153834693380   16.54288998029716   15.40194009745138
In       10.68109598644739    8.14197221852257    5.34498189094258
P        11.58220569227924    5.94233200955149    5.86672699386000
In       10.71330885454271    2.18402354244826   12.01533953771379
In       10.60032761720931    6.72248216099168   11.20284361479473
In        8.96878534499415    4.19945322988988    9.63502340832297
P         9.90237554452155    1.92140187016632    9.71466581022573
P         9.93649116364246    6.35800918193415    8.84083550370011
P        11.51194190872485    4.54562429833741   12.01311325129861
P        11.69913575674871    0.09320842988511   12.87718828217283
In       11.40336318945880    1.02929647827152   17.94105238863848
In       11.09585996943756    5.57293909313164   17.05383066903872
In        9.28268861646755    3.00001864687648   15.79983664393538
P        10.32614634405060    0.77075359987103   15.75097890105330
P        10.12094704672574    5.12864160261180   14.81638965786850
P        12.06996214049088    3.42411497828179   17.85756436216448
P        12.58708092712662   -1.09305574811788   18.33057734749480
In       12.06522842973675    4.20493700375957   22.91740019927111
P        10.74070431334152    3.97101227594594   20.85572445945115
P        13.43271287023459    2.25515968593070   23.58357156778962
In       11.37385826615569   12.48273551412523    4.37914819964663
In       11.86717354398266   17.10073373583838    3.66201000818282
In       10.06528891171991   14.66632195813007    2.02224483687099
P        10.82541202096467   12.32541965295003    1.99271656902841
P        11.35197551923698   16.64048675540898    1.30965313177808
P        12.34237153990903   14.78517675180531    4.47125126266179
P        12.01574308569439   10.21177530106445    5.20409845192640
In        8.93549065399224    8.65087795859357    8.82968188084437
In       10.50486453978841   11.26346907303541   10.40359595567021
In       10.68913853593824   15.79211937138589    9.53603235180664
In        9.05861460953684   13.26327963056297    7.90992317572645
P         9.77006556352807   10.88187999049483    8.07819361249830
P        10.12881787712314   15.39287742179989    7.15953629911730
P        11.43423409726825   13.57556106608306   10.38317868569250
P        11.41066268007451    9.07987570117609   11.19082059378325
In        9.09758948831047    7.40132816010272   14.87861746924249
In       10.81444636651891   10.07868851402073   16.22082960020539
In       10.48848441350040   14.56230816571204   15.45402764896961
In        8.96109268240664   11.90163281992954   13.96459604859617
P         9.88304352261523    9.58717741361287   13.97670141346267
P         9.68167810967880   14.14400699765858   13.14774165692038
P        11.55788129186733   12.45881619316836   16.26244209776695
P        11.82961330877041    7.95478415999836   17.03571118478925
In        9.81836698748390    6.23395517082657   20.93686945632208
In       11.73785624325697    8.79993678016688   22.21008123039162
In       11.36720674184161   13.18025240756293   21.48575898395495
In        9.23086432031482   10.55812225804216   19.91795329400942
P        10.50542878556637    8.45062891379894   20.07710248433195
P        10.20501005579219   12.74682354373978   19.32713829690264
P        12.63159259551865   11.12071170301846   22.08149568340019
P        12.75266351084572    6.59291657912449   22.75593961667860
In       12.49693603233918   21.57255543342342    3.03523833068864
P        13.44924341355628   23.76691031556400    3.28063035254582
P        13.05240022059908   19.29324168344924    3.79291441652516
In        9.40313278681775   17.77157627195316    6.96500433004846
In       10.92514122702444   20.33344729671609    8.68866427237452
In       10.84490674066139   24.58876882000173    8.51862723300843
In        9.28745387583100   21.70457232974773    5.62383485308958
P        10.67561774314898   19.80964359796453    6.27504567299314
P        12.07468685110706   22.53153541515551    8.94720546210453
P        11.59066466744050   18.11314527649616    9.59144920581933
In        8.65078418717462   16.41213982269339   13.13194862410453
In       10.16134992044799   19.05753771901907   14.63392833069674
In        8.18014536729559   20.54365845388724   11.81475184416523
P         9.54987289888117   18.57846188465848   12.27085701761463
P        10.86979157375208   21.41337353243778   14.57599082674795
P        11.18491218666159   16.94829909341668   15.46212413208417
In        8.91089442524379   14.83514566161126   19.22339072632234
P         9.29027286073406   17.11874578178819   18.59351222839632
P        12.03855311806024   15.54337962608459   21.41542324403339
In       14.12644814284887    3.10862267072465    6.35702225147953
In       14.49920351112405    7.73087773406218    5.47668870790300
In       12.68254195247839    5.47073388571804    3.73703880178194
P        14.06882495913573    7.39896462114977    3.05289166347969
P        15.03094756045228    5.38370213016504    6.16832627645368
In       12.58816689534375   -0.46110447675780   10.67535887962267
In       14.20287334360906    2.20442713178591   12.15246980339940
In       13.93630319751450    6.68741235671806   11.12562511872648
In       12.37813146906131    4.07036867982126    9.74075222839631
P        13.30074830618365    1.76410052662873    9.89532069149320
P        13.08124132718933    6.28721668858791    8.82989751679620
P        14.94981399039494    4.57372425343865   11.96429376150823
P        15.25756480797511    0.08016225482979   12.82008052282850
In       13.28447571950912   -1.64005940788539   16.07003198384417
In       14.89491901457563    1.20092547991317   17.61565338751549
In       14.43904589676889    5.76161324552937   16.77266335502638
In       12.75491896148433    3.01704072066885   15.51633720854479
P        13.70491875863794    0.71782816360032   15.49932893851776
P        13.38109763097001    5.24782963699886   14.59533718976091
P        15.41290744266982    3.62167489726435   17.55280046237886
P        16.33272962049196   -0.72402878234108   18.12762633002925
In       15.38402935712332    4.52325202016881   22.39525092495701
In       13.68007563480679    1.68676085347373   21.20545579317218
P        15.11437019639934   -0.28247113039290   21.05129962647281
P        14.10462561773871    3.98382383265472   20.33279868315906
P        16.65216507106540    2.42389808584836   22.46268807215660
In       13.13532701907672    9.72025216561301    3.03785328367534
In       14.61390212598507   12.26177119917211    4.84444638814865
In       15.11379366298217   16.68768206672291    4.37035890711451
In       13.54094460112422   14.35835867947401    2.33788711697608
P        14.11694892092096   11.93259455146735    2.44111543385806
P        14.91809716881541   16.39156344390866    1.92376655326126
P        15.91496436826794   14.38050170736201    4.81089590400975
P        15.50782704795960   10.00968209286057    5.37021996044542
In       12.27942853737338    8.64644238201466    8.91017722172958
In       13.84567069161766   11.24317320437679   10.42847223036176
In       14.02342478546938   15.75127612814586    9.80882869303113
In       12.37816901944856   13.16923739120610    8.12686883869287
P        13.17784295451805   10.81158259992811    8.07991996310136
P        13.46323375089334   15.29691054927177    7.43661503833858
P        14.82819437509789   13.52123892629167   10.51056783247697
P        14.75536117496530    9.04369656556643   11.12714490949587
In       12.44940729164228    7.55827174049181   14.66631062595299
In       14.13332110909461   10.29786866318995   16.02361297970843
In       13.90278396705707   14.86129168667085   15.34259568349094
In       12.25669390079212   12.11672004425550   13.90550185708999
P        13.14843038713414    9.78900251986883   13.80945757923124
P        13.03468939078814   14.32900293125073   13.08750221878350
P        14.84488197795049   12.67750815266691   16.06775889002167
P        15.14082811706300    8.14165822303402   16.73212073930227
In       13.12820033277323    6.27539991045717   20.33602758933743
In       15.19868862661627    8.97142385240326   21.67513950566842
In       14.79437522904023   13.37347877020137   21.05371634916306
In       12.85507188407315   10.77641060562207   19.63665265294135
P        13.91400751207571    8.52215120960319   19.59694339809022
P        13.53342847492479   13.07006568495180   18.92980134544429
P        16.11511515545753   11.29844232041645   21.54240128315063
P        16.31870500169491    6.81625376967843   22.18885488243199
In       14.51157718569119   18.83977809603353    1.83153823802509
In       16.31818212064908   21.30212137758081    3.85235411958590
P        15.94405955758015   20.80328313252950    1.49220876064807
P        18.64185575326363   21.83635852928812    4.30369666786550
P        16.10881222624394   18.96268166225395    4.66845069701986
In       12.73977846428787   17.67468458046734    7.44084687341871
In       14.21428750315481   20.13292329109693    9.26854158149629
In       15.07850780156180   24.69297354493151    8.71417321796109
In       13.26433242576950   22.18400607594399    6.80251614210926
P        13.89957108131525   19.78570231311307    6.82993666398346
P        14.45465739521131   24.29336883016394    6.40602286442577
P        15.25552967118905   22.37389385015477    9.51448368543100
P        15.16640575307109   17.94726646528038    9.92313672189009
In       12.03168988368015   16.60605994261005   13.15875274949311
In       13.45068865338849   19.25896917190594   14.83606214174644
In       13.75749803433400   23.90047879736207   14.08306956346803
In       11.98419111470392   21.17973158280044   12.41062376310782
P        12.84099629323251   18.84768032344907   12.46989272622176
P        13.13164880784584   23.28072231962524   11.81493528578267
P        14.21175021846850   21.61543246952399   14.85744553738530
P        14.70585587977157   17.21177876886683   15.46907400574783
In       12.57334119081372   15.37209598702630   19.03699862465326
In       14.53355681098305   18.00829272887502   20.39278909128429
In       11.96717462890438   19.72521395592366   18.38639650607507
P        13.27052247216792   17.65255239405695   18.29401799171903
P        15.41502393658318   15.77632997578473   20.94703088815257
In       19.52893730335351    7.33154914378065    3.81649831883949
In       16.55922533330279    5.03719187012352    4.26195344062708
P        17.11220804950382    7.24717872024280    3.34307313390450
In       16.32323215747526   -0.50955977449415   10.71537281396735
In       17.89200633064211    2.51497332403246   12.03272294341441
In       17.19672704200345    6.85429731536549   11.01484906541751
In       15.87506296660396    3.99795289510512    9.74082898982038
P        16.88859637653053    1.74313047461628    9.92627681432769
P        16.28041753377680    6.26378632497113    8.78321199717839
P        18.55630643513100    4.81642536862659   11.43589766434465
In       17.19706144006010   -1.06380430540854   15.88996865370994
In       19.12145745269233    2.22266697459920   16.77560045116104
In       17.99021796006356    6.43671855445120   16.33861269552539
In       16.16098585255422    3.32806770084046   15.21277840574423
P        17.53055517343405    1.25735371205835   15.16992304999597
P        16.79802907813177    5.56453200927552   14.34647107404151
P        19.64484462153293    4.62112620472840   16.64914716215126
In       18.72764014714168    2.74531897008866   21.24824579213956
P        18.19821126623868    4.42966003043713   19.59302376607632
In       16.41695399968613    9.61349604666419    3.10511142128284
In       19.17062315510659   10.91497799832512    4.33543400815399
In       19.18951976249684   15.12354801061472    4.62519226617288
In       16.92736800677192   13.80083612119170    2.62746201058467
P        17.83083734811394   11.50558353078331    2.34975290662714
P        18.26827111249987   15.88664580135286    2.46286330442087
P        18.91557441165317   12.93148486093460    5.70727379506552
P        19.06427632549769    8.84285660776943    5.68903951000352
In       15.60755453075558    8.66419860092075    8.83071907210968
In       17.34288682071654   11.13855230341979   10.41635911493965
In       17.65394332202698   15.27055768054835   10.01765528257601
In       15.73496536578928   13.05467879921321    8.25567077565313
P        16.70555984785011   10.75834642374090    8.06285186747777
P        17.10036753511721   15.03050802080571    7.60191331629208
P        18.46251522824604   13.23297380471740   11.22637273926817
P        18.32813746735170    9.05984079412504   11.38144404039199
In       15.76356232449507    7.82165795770422   14.35790266380677
In       17.70581631947703   10.80985889587867   15.78373888605978
In       17.57093795686704   15.09476488865130   15.32039519216685
In       15.57111606433034   12.33223235949833   13.72375874726032
P        16.59058517918665   10.06228379336631   13.69692183267129
P        16.45877359210310   14.57823087392493   13.16544326261448
P        18.69651805593027   13.06013073914515   16.20023104726314
P        18.90545582313699    8.74822027388841   16.45873972027324
In       16.61077396557784    6.30074540460793   19.78793558100389
In       18.56510790547803    9.06175601931084   20.96631121077473
In       18.15256698392337   13.69928290486490   20.40447741954170
In       16.17916630305644   10.91381066860207   19.09765623576383
P        17.13372487144527    8.61004264250371   19.00078242527033
P        16.73813760087473   13.24931040807451   18.42337850117157
P        19.04725676343348   11.39769773309901   20.31510685617866
In       17.75249576174115   18.24479541209434    2.95736326494559
In       20.95141393190357   18.40391246124078    5.46382500325730
P        19.26516711207853   16.90494333796029    6.34449819891507
In       16.25530129458980   17.37999436268705    7.78731541547995
In       18.97193641411991   19.17550778391351    9.38908650152151
In       16.74537775156206   21.52465678204666    7.74145948588500
P        17.73339143424290   19.31109692548156    7.23856126334973
P        18.78701505035695   21.22061541681730   10.67082291931272
P        18.93428011418447   17.21739851508087   10.93391936632922
In       15.62526642749763   16.93229177098366   13.18993694059350
In       18.12376000357958   19.23773014600603   14.38454968838362
In       15.51761980229730   20.89270632565727   12.86825595631812
P        16.88484852630931   18.87890581457746   12.25134629806598
P        17.04811483614087   22.77095322759376   13.14601538935614
P        17.13830297366272   20.55517355227510   16.17097043713816
P        18.81605549879096   17.22102743546240   15.68180591484720
In       15.80603497695433   15.56114564259404   18.51589067940596
In       18.17917796749420   18.30973588591422   19.41374526701446
P        16.55652530938200   17.78379059670593   17.68633497779414
In       19.57065373411694    4.68486057169382    9.20190759483845
P        19.29649821944087    6.63172396309015    7.75560283629087
In       20.64943141214884    5.19645010559815   14.47972810350032
P        19.65992541082693    7.02896873195923   13.16986734791629
In       19.58360928902998    8.56164886814854    9.28512526415744
In       22.12189678188109   10.37746324414408    7.37039318022385
In       22.31274716712493   14.38176129094671    6.95765347352242
In       20.18707914949546   12.46800827111554    9.59046237501374
P        19.72621562380612   10.65909862326116    7.90862349653267
P        20.13660510896814   14.48938979786894    8.10632379405965
In       20.26211007150329    9.09035452240280   14.41436649867770
In       20.38174983319693   13.01708544852694   14.40026783281862
P        19.56469492939886   11.08452317850107   13.08654858261797
P        19.85709238243679   15.02412859135485   13.03177776519664
In       21.73272831011118    6.95297629516842   19.07791218972856
In       21.09806152608158   11.46301263870979   19.00761594017502
In       20.85295860064527   15.99178143138715    9.94843012113489
In       20.88238805015758   16.73642168069965   14.44815608172959
