80
 energy: -5.122358858900 gnorm: 0.000076432210 xtb: 6.4.1 (afa7bdf)
In        3.94488446424370    7.16220895931752   11.23701917429858
P         2.97724730723752    7.28937058408958    8.99963689140604
P         3.12440712731100    5.13090591056123   12.29713708778151
In        3.05730131876560    7.42336214398745   15.42541116726350
In       -0.17463329701714    5.48488500927888   15.01729466970316
P         1.12038399546328    7.21482651577374   13.87410388873789
P         3.23771760477824    5.40829974397933   16.77104962099209
In        3.47717925723682    7.40233403172566   20.29526691786946
In       -0.10999479152211    5.46438180209561   19.38756541511529
P         1.33810861889669    7.39344619844649   19.08611827786309
In        3.83981763031662   12.22740601825747    5.72603579468066
In        5.73148507165711   14.98152483443455    7.50614670556215
P         4.38525574230333   12.97627676168643    7.96965740272879
In        1.12890482380413    8.84644750967699    9.23432305691943
In        3.80731370829427   10.76604831162105   10.91376990706192
In        3.47612831700280   14.75939813231436   10.84492908980376
In        0.95615749218594   12.67045080116306    8.95305803972763
P         2.56384968728552   10.80029254664870    8.76396908274804
P         2.12399541686352   14.84092184080173    8.75955321493009
P         2.70968046240625   12.71253315819246   11.99035165638725
P         2.67491846753874    9.01792774526736   12.27682546980738
In       -0.20200197099433    9.13171111754789   14.75990885218249
In        2.84863617619844   10.98560198936550   15.32072360944036
In        2.78928306083437   14.62721531008049   15.21383375299733
In       -0.23266940394433   12.85416085808233   14.53050967640815
P         1.04696642465158   10.93795600894526   13.59863623380350
P         1.05309561639560   14.68822886668976   13.43032758449394
P         2.09541840041959   12.83881051463296   16.80286189926944
P         2.22812031104753    9.19801490911662   16.93472363629902
In        0.22593265203337    9.25591050263872   20.28438801785212
In        3.23400002901503   11.01012569101008   20.09650127786897
In        3.32225221905135   14.72558994912572   19.64118954753800
In        0.17365126226302   12.94242745576637   20.12188031463229
P         1.10282311765804   11.05009400213023   18.79428633234812
P         1.04008160968408   14.74804944706995   18.62998904295960
P         3.13887858163290   13.06714447941629   21.47707849222710
P         3.21107148507401    9.25685833172018   21.85100589938986
In        2.56863348559457   13.54653423510258   25.13411600400451
P         2.81942930814768   11.44886632992241   23.94694398171800
P         2.91703266946425   15.21757707723297   23.35884972804353
In        5.46127270832221   18.83477992995546    7.40786890764512
P         4.28022987438984   20.89549322086750    7.82251863176231
P         4.16493652342528   16.82428919680683    7.96201422149060
In        0.59470291326218   16.74195120861780    9.17164511696517
In        3.45599051447258   18.69875453567225   10.78714391421823
In        2.98129795889001   22.66785430923585   11.10032443605041
In        0.47820567901470   20.48652315782736    9.15294566047426
P         2.09551056293101   18.67398129149712    8.69766403776907
P         1.46065451577431   22.73968661831630    9.15632286221414
P         2.35789549444327   20.49371373761739   12.09632667152291
P         2.52707285942744   16.73566872900206   11.98340663478134
In       -0.31198413523372   16.47178112495906   14.51389930718807
In        2.80211251660353   18.31782583524594   15.10797802609555
In        3.00044958401307   22.22935621859030   14.98661570452292
In       -0.39385141649975   20.34290928430973   14.70520604654701
P         0.81997881947202   18.48855009410503   13.60444042093408
P         0.81582416243739   22.32096657466985   13.78807695413717
P         2.71437602518320   20.34305816708912   16.52092472172085
P         2.09462281776556   16.52484986555057   16.67548590566932
In        0.13601045866574   16.70561501170999   19.86934809929929
In        3.67028290123182   18.36536705881589   19.16092664009455
In        3.54130567294585   22.80400381375874   19.41595323152038
In        0.59822724569203   20.42969061756394   19.92968202722917
P         1.25447630431203   18.49112263727800   18.54125761230986
P         1.22961838749271   22.42466607857844   18.63492847728665
P         4.27099986730262   20.56599485829758   20.07276915894295
P         3.37361118680794   16.78659610343114   21.04006660297196
In        2.76536479363535   17.37364110416912   24.53597820737050
In        3.33951641173985   21.06932954597725   24.12648199747769
P         3.34934165982669   19.03556907123582   22.82243951547882
In       -0.33596427227132   24.16470923685013    9.94945593674626
In        3.29429896770052   26.46851648459337   11.44276347407836
P         2.23811139096136   24.57074039859282   12.48286507670150
In       -0.36867350098404   24.02279726265862   15.13660220370717
In        3.51493675896928   25.62701710592824   16.39467006053394
P         1.10282333325768   25.56637171056478   16.27903947087591
P         4.79758399887747   23.84953359674392   15.37067888933394
In        0.18547455749840   24.19147174401771   19.97547596939743
P         0.86283744016000   26.48024132325987   20.20522517723906
P         3.71167499889247   24.28288650132808   21.31960757474254
