24
 energy: -1.570349672764 gnorm: 0.004101917972 xtb: 6.4.1 (afa7bdf)
In        0.79694447138232   12.78374405402324    4.26264607148930
In        4.34411299378233   13.57179573439615    2.74737712731514
In        2.66384360763430   16.13210639430537    4.38117591512328
In        1.10350830711161   15.33030615966935    1.14033332167086
P         1.95913696624271   13.29435550080847    2.19926223029331
P         0.42062965184527   16.21512444852138    3.32070312602402
P         4.46656995661172   16.02262488465725    2.70664296274633
P         4.62389681350106   13.10570063769647    5.11158679001564
In       -1.01426064813138   18.21715181631995    3.31912988960778
In        2.28782343912919   18.64304261775260    2.12173967608386
In        4.01841227819776   21.37145855957001    3.51966176954689
In        1.12914017587908   21.93003096154094    1.31111601442784
P         0.09357631347660   19.72862140936929    1.73667097494915
P         3.36363508383193   22.89142212336366    1.68261060265188
P         4.63007514735580   19.14085025578498    2.67909967958426
P         2.19672909668065   18.56203652482078    4.59592995563839
In        2.62042232470353   25.21241408077283    1.29611228799977
In        1.41651403902247   23.80506730860052    4.22912070632453
In        4.15990042763349   27.13456402685665    3.78120689172383
In        0.21296226528048   27.37525562646046    3.01634880094035
P         0.39127622807940   25.01797424012165    2.33787135097888
P         2.38354392691225   28.40371087656109    2.74430323476768
P         3.57915525931618   24.90282689630212    4.53008659520856
P         1.76302187452258   21.38037486167313    4.50150402489852
