100
 energy: -7.133990785993 gnorm: 0.000230027588 xtb: 6.4.1 (afa7bdf)
In        6.17257654561873    5.16665925252197    3.58290776989016
P         7.16683589614383    3.07763754336873    2.86729280315211
In        6.09221469117371    9.41296054483163    4.25232464495651
In        5.86165487971826   13.88903509127891    4.57919097596147
P         6.99026849699155   11.70268041263868    4.42418813345619
P         7.33570048854719    7.29456323182184    4.01157659918358
In        6.04784864054616   11.39441102309529    9.78599589293515
In        6.22713440502195   15.76677700918997   10.11856042905976
P         5.17250361151878   11.51564401160279    7.52552736691476
P         5.27089901541076   15.92479255612275    7.89331761346298
P         7.21467657173322   13.50066729695078   10.43318753448117
P         6.92944644048710    9.11893789535589   10.12819635740220
P         6.82047181009357   16.11719757603538    4.85536342601640
P         7.32935059614137   17.86221384452723   10.78953828413089
In       10.23926989580377    0.49050033721901    3.75254725472147
In        9.89771165032024    5.06894997900846    3.60909668380217
In        8.52549883831449    3.18983404162403    0.86486199754554
P         9.53322238092304    5.40681336572004    1.18498115819552
P        10.91605457795895    2.81151382012908    3.55842882248426
In        9.64379361759577    6.64552517807747    9.51707987184254
In        7.66916964295123    4.67524892784511    7.18860712823216
P         8.46001381486355    2.51057674670388    6.50517256869157
P         8.80191697718266    6.86671898683778    7.18264762371520
P        10.75832126945381    4.45776388148186    9.73596448042484
In        8.30456640778131    7.49104229886213    1.73299266120523
In        9.65347096733320    9.56861673323717    4.06005383086302
In        9.42556226843277   14.11943942452427    4.46635852255829
In        8.03621446521915   11.93444154283127    2.18321766001550
P         9.20806873889609    9.80589876606627    1.63545595419005
P         8.87455308595038   14.27602009460242    2.05925835572979
P        10.46768691520861   11.86296184398330    4.55862949263392
P        10.68402488642237    7.31681124083589    4.32914089038186
In        7.73284577866573    9.03414198423738    7.81224194414914
In        9.50489779376411   11.19633694883123    9.86497413846272
In        9.78645126483818   15.74843644265220   10.15897494978655
In        7.86791066888273   13.66971487458141    8.04587043774376
P         8.62831319194191   11.34825170973668    7.54145794204147
P         8.79929565040098   15.97858717422805    7.89098475880913
P        10.57710896731814   13.39502471460154   10.31462491409375
P        10.47883269243268    8.91671199432818   10.07150699259336
In        7.84389052395909   16.46085723063792    2.64686406735356
In        9.52844154888840   18.68795621770895    4.81571424703625
P         8.75933511504553   18.74062968736873    2.48773909173694
P        10.44847857187061   20.87276336442967    5.50847881395027
P        10.39695485227623   16.35741708855233    4.95468901325784
In        8.03899133984101   18.27552392942067    8.47743728027265
In       10.54638223663270   20.17966147869194   10.61277512048658
P         9.25642242817679   20.41914510064319    8.53632278598963
P        12.09649191792601   22.05665318159173   10.96139645794508
P        11.14328200645757   17.77135941465389   10.67089155607974
In       15.17759035465652    1.96560253973096    3.93642847010257
In       13.43218285481531    5.39442701722016    4.42819034691627
In       12.30230300179673    3.16040696517218    1.56706544274832
P        13.09190755114074    5.43942416235895    1.98539226666340
P        15.21686852440801    3.92733630331889    5.32912895621348
In       13.06346817426385    6.81797309606110    9.48375549518194
In       11.38235945677526    4.63154985493530    7.36351203701704
P        12.37457956974802    2.42847951374208    7.02128174127174
P        12.15956641435030    6.99438903971093    7.17701584016597
P        13.99615333033208    4.54424622325320    9.50803767947921
In       11.82105232560423    7.56359314105635    2.13253911765490
In       12.94018667760104    9.80021617720202    4.35245070494416
In       12.80688566572369   14.15059046376001    4.42677722660567
In       11.43717920818596   12.10697762983644    2.27490403996734
P        12.58573413852198    9.92697531978369    1.91574061484802
P        12.40735293106795   14.40215639046977    2.00386043933483
P        13.81013566330119   11.98813271239233    5.23621769670458
P        14.18144492284185    7.71729993130952    4.96750685071030
In       11.07361766013337    9.17227358712720    7.68268006731746
In       13.11272130887675   10.97573115071173    9.96883688718458
In       13.30851190793078   15.21159417148244    9.83596602154920
In       11.08242954608488   13.50821552771061    7.89581598997275
P        12.27528557526989   11.35214958547558    7.67201214540756
P        12.23395435746114   15.68922263958617    7.64773460126357
P        14.47455059928563   13.03974745980496   10.13182433771051
P        14.30272711446264    8.81978422669731   10.26101913467334
In       11.33926175938231   16.57395478859610    2.66717417446819
In       13.01273687563879   18.76121966012774    4.97442526781832
In       11.27664372277593   21.24141465737723    3.24248191302136
P        12.05546120636704   18.96008979601640    2.70761236658850
P        13.72765726730288   16.38836252264837    5.00339779980206
In       11.44517162515559   17.96556518624313    8.22636284390035
In       14.00764984385332   19.47346531507112    9.85907040099863
In       12.37740713668303   22.56394282939039    8.60282508905358
P        12.54856632360238   20.18446112319817    7.99844770305360
P        14.84531257214255   17.15962050664341    9.77700590100540
In       16.36574654702682    4.78219882199343    8.97757969712831
P        15.56230987644651    6.22355725093743    7.15229751131839
In       15.81708274071291    8.03065118290266    3.15041724870080
In       18.05181415437258   10.91966943195141    4.94164382833187
In       17.82890221178451   14.52777079851971    2.85121959670551
In       14.93050296315845   12.12785535983871    2.99140918659353
P        16.63801322171492   10.33539719699069    3.06732392739755
P        15.44041262357613   14.47234122792647    2.37401138939298
In       15.92420493674155    8.29569942945826    8.47119608986929
In       15.65093490181459   12.15431465509855    8.14240640896546
P        15.03363534866940   10.04177895875131    6.96788538131349
P        15.01856953171401   14.15660985838099    6.80227016874840
In       14.73579710387296   16.80328914575890    2.78230492240505
In       16.03730263177473   16.08724843052440    7.92092973184628
