6
 energy: -0.348589813032 gnorm: 0.000059646978 xtb: 6.4.1 (afa7bdf)
In        3.17775980084679    3.17802355157373    2.37079464965602
In        3.17503783622706    0.35879443366330    5.17309450642812
In        0.35631297018808    3.17209499538094    5.17018891588227
P         1.20761287467636    1.20724277690533    6.29155238468168
P         1.19855385711549    4.29053434471037    3.19983539306249
P         4.28736516094620    1.19595239776633    3.19715415028938
