56
 energy: -3.741167304986 gnorm: 0.000466014028 xtb: 6.4.1 (afa7bdf)
P         5.37696065281679    4.05930336188060    4.82911740680230
In        2.51670338872323    9.29220613899321    2.57480482038333
In        3.67455734065845    5.75532547305511    5.29739669527640
In        2.69129897271300    9.02721521689692    6.31482557319357
P         3.95375464038684    7.16342063992550    7.29472354787296
P         2.87879062838691   10.75738247613297    4.52261845302235
P         5.62598096685167   10.33107806761342    6.86447723953229
P         3.90402686716530    7.48718280807721    3.52314845159582
In        0.82405385174627   11.98402387132350    5.06584404950394
In        3.36689786183083   14.47345869058888    3.00517032299091
In        4.78438060746088   12.13704168900477    5.36270720298318
P         3.99578600184549   13.82248777442811    6.94829708435441
P         2.64149263685222   16.21867442648218    4.51887715388170
P         6.78623464865395   16.83078986799631    5.67146046329712
P         5.53004317238365   13.28151642467976    3.23334178884867
In        4.45614462168041   17.47258004165126    5.50810147860586
In        9.41849256815520    5.96351114340887    0.55312764025178
In        7.22582054598794    3.75213127639364    3.29769499302293
P         7.78691728603415    5.98204328224326    2.36940263283950
P        10.56374097024555    4.76491355292083    4.76502278322901
In        5.53631211791146    6.81389755313062    1.78921619497955
In        8.38964159591212    9.31339473370076    1.99078747721314
In        8.98442946543198    6.60554318806159    4.49100521904927
In        5.53705985970778    8.66916303334958    5.01847401000558
P         6.93229590456051    6.82061107282008    5.84323813913142
P         6.30081340467217   10.07115362122243    3.10826723301343
P         8.69074326513982    9.69775535560598    6.32075861820244
P        10.24913957512664    8.46279562983991    3.37509515279409
In        5.33027909757386   11.59523496026210    1.43647564399169
In        8.56832798657858   13.53885293745501    0.88277684739249
In        7.72636066422614   11.32828287528002    4.75888545793710
In        7.18695322174090   14.75330938717279    4.39152444344284
P         7.56754882997293   13.24935659252796    6.33910858398480
P         8.38457330286924   15.55135303935672    2.31631268490154
P         9.87376626211304   16.05686997473354    5.77109412421728
P         9.10894037726975   12.34364764859067    2.96887204950072
In        6.57632842527500   16.84296224233423    1.26105377574696
In        9.61382901336421   17.30080719586885    3.64748304279517
P         8.21358961114105   19.31370921352369    3.67423521016703
P        11.61985217021162   17.95416955049802    2.34918644344016
P        13.90584169645979    6.59186776206323    3.64786700013576
In       12.37902422671295    7.88026772307917    2.28361946664561
In       15.09709071805938   10.43700063889882    4.11654406298763
In       13.73740212087750    6.74363588237216    6.05223677355015
In       11.01974005990277    9.30259147923034    5.60758625860352
P        11.76029056462755    7.55408840378869    7.18044404198712
P        12.72748040097239   10.80731400758236    4.55033484405687
P        14.02462199473108   10.38886430409947    8.10077376732162
In       11.37067341487848   11.38239998495393    2.56042455069588
In       13.77344954182655   14.09348904359216    3.05709882332922
In       12.94023478504445   12.07849769298464    6.70677342504590
In       10.24394318110775   13.89490944469196    4.60750406696782
P        10.52719687363095   12.57393644533287    6.67885169650567
P        11.43968445615469   14.71098492766331    2.57890391994977
P        13.97857333750282   13.93644617959103    5.46177499340328
In       11.35010024588935   16.24120005082699    0.64637217510479
