48
 energy: -2.596096817866 gnorm: 0.000986092135 xtb: 6.4.1 (afa7bdf)
In       -0.93657644008799    1.29520740279901   12.24746425377296
In        2.57687690228238    4.38769854533696   12.41654903523880
In        3.26650555278830    1.68275373349662   14.85335604091327
In       -0.04113168563714    4.02475960732420   16.11440233871656
P         1.08697091124598    1.89463616773034   15.87229017040720
P         1.10195733746757    5.18226154617645   14.24815498674875
P         5.12173402741455    4.44188978591415   16.64497673867746
P         4.45836344140877    3.16654178695329   13.35621117021283
In       -0.82055023850155    0.20069603945470   19.26390966104507
In        2.53640681342780    3.04585735803652   19.07774537870790
In        4.84190266826485    1.66573937449613   21.65851520065856
In        0.58004961109585    2.81633753079099   22.41936624879513
P         2.61321551414753    1.51297910525998   22.57857759486640
P         1.19785290976779    4.41286852460434   20.63522491830023
P         4.93644638786508    4.81875678383175   23.49062852721530
P         4.91434571062551    2.89421738820027   19.56229915975141
In       -0.27888446600819   -0.20751217024556   25.51891684406793
In        2.59139158828042    3.13551150383236   25.93317180003934
In        4.44602065151407    3.65969817240382   29.05436324447146
In        0.05506492895242    3.19186309467050   28.87139341253702
P         2.22127391709233    3.31433448634316   29.95539388952074
P         0.67621962425997    4.41350975013819   26.81132890261051
P         3.07716096596032    6.99233127032243   30.17121283959528
P         4.64619840439181    4.20051186310708   26.68488814479218
In       -0.80829272842219    6.03976488029141   12.97334242780058
In        2.70860544977764    8.07727341220922   12.69605766417090
In        3.22141698658209    5.56722512855850   15.55863220185119
In        0.62922045717847    7.94576533053503   16.32782672139775
P         2.38629401576874    6.79357863089376   17.56123061930411
P         1.15981018462887    9.08514757682631   14.25901083678757
P         4.83738246043405    9.63986719190970   16.42447464671974
P         4.43704272413910    6.77302052981016   13.77870762818373
In       -0.89022233759938    5.53298500896088   20.04798776732282
In        4.18394939548030    8.32167495295124   20.29308643752529
In        3.11559963070522    5.38051176827595   21.94311116353159
In        1.05670538206989    8.72198524261571   22.38749195780381
P         1.76101324383170    6.70112717783373   23.55059605315678
P         1.75059863347731    8.07106892430956   20.15192444009202
P         5.70127633093332    8.36154088233177   24.28938148996851
P         4.56637764339363    5.92860016661297   20.00389084223141
In       -1.32059445745423    4.81379086709215   25.46823038772347
In        2.32641096882442    9.18890881680575   26.35802381532930
In        1.87037259788547    6.14427428250650   28.20491186146031
In       -1.14965613097884    8.84946794839061   27.63085136663975
P        -0.30028376974364    7.02979644034910   28.98879267267879
P         0.21477741051341    8.10724225253365   25.75271073129562
P         7.43947001356199    5.92794503868502   27.49114856901323
P         3.45505085703474    7.03664889767966   26.52303719632190
