112
 energy: -8.149903878945 gnorm: 0.000368789105 xtb: 6.4.1 (afa7bdf)
In        7.37947679664036   10.12629505474459    4.52051469786526
In        7.56194280343275   14.39633254536156    4.03156380500796
P         6.63403352715164   14.48650465063349    1.76926951992442
P         8.66776930195644   12.18559605722393    4.34772525627604
In        5.81401808082642   16.67381192471717    1.11125165530056
In        7.34317826446272   18.89357840302685    4.02281939308495
In        7.05545940622274   23.44709915992377    4.22038076224783
In        5.63907346775024   21.19176323098343    1.78567400470018
P         6.61321355422963   18.93127307106078    1.65780188082790
P         5.86804788137767   23.59926336565985    2.08361935625304
P         8.17036263948312   21.22722126480301    4.26349255943453
P         8.46839696139229   16.69375767427276    4.34083817612521
In        6.93594463371531   27.73457796361263    4.23594226091477
P         5.70693392050858   27.15995779814563    2.22463578417178
P         7.61618611238803   30.08617519351302    4.48501059880058
P         8.20773252344637   25.62227164104701    4.61361132969154
In       10.90657539845848    5.70230506964412    4.56616945514433
In        9.25076376410845    7.88639308648689    1.30879139162489
In       11.15707143345543    9.94804777435094    4.04771319935316
In       10.96706515303199   14.52702843555259    4.09046277521872
In        9.38570135833865   12.17652270951059    1.97392667745933
P        10.47197696273976    9.95555755490865    1.66838999925059
P        10.25364362941483   14.48948197307564    1.71820220018890
P        11.99846750921342   12.27131440190506    4.31994984584062
P        12.23240816432349    7.72554293984440    4.35530783143752
In        9.19940764643788   16.72980624507933    1.97243914911358
In       10.77981934207429   19.06142298183100    4.11618409600461
In       10.64428717031392   23.52114122194468    4.08367454287960
In        8.96772560431658   21.25974784311660    1.92441300310230
P        10.08426281372254   19.04443523623049    1.73949110665222
P         9.95229333807923   23.53483362935984    1.70001419921755
P        11.77021409260841   21.32529331120137    4.41042868125974
P        11.87336822612827   16.83499163522680    4.32956008088085
In        8.79170811920985   25.68091634119489    2.19563972570824
In       10.31062967848338   28.14396089250466    4.24936137201760
In       11.50701189115854   31.35489396684449    4.30693261850199
In        8.34032332200923   30.33585846676179    2.16186671593025
P         9.36076261162915   28.08459063725553    1.96288142480342
P        10.67042463855638   31.13255617352219    2.00558165676120
P        12.61647469883240   29.11290408196795    4.38865075487245
P        11.37766035931977   25.88644841370008    4.30207828950228
P        12.04432397197325   33.74196751020180    4.60268274776919
In       14.98418523294086    5.40170959034918    4.17005517541646
P        14.07486217618332    5.48541469373305    1.92269470015560
In       13.03173149079807    7.71209013339345    2.00954722968322
In       14.53733844077458   10.05289739709712    4.12971034716431
In       14.36841079307617   14.62190643148544    4.13409387642206
In       12.78264101569152   12.30857713829836    1.96917305949096
P        13.81971679891859   10.05497427382191    1.75738476522742
P        13.69754781158500   14.61421705753884    1.74921360825394
P        15.40017724939418   12.37176120069080    4.41158154838198
P        15.55346264615657    7.79231077710583    4.25727778092741
In       12.63944191603656   16.85665191900045    1.97401686019877
In       14.28689703192448   19.21858026835416    4.06786979234143
In       14.02617916152338   23.81974466379194    4.20832223390820
In       12.46985742442480   21.38243313193433    2.03201356229865
P        13.54819278949435   19.15993262518821    1.70305045658158
P        13.19564342990459   23.75275722973459    1.87747828303345
P        15.08162456927791   21.56269866279477    4.23619831169068
P        15.24178632596858   16.94082919440063    4.37324587252840
In       12.13736660840003   26.01049102761595    1.94596025042955
In       15.20589998804716   27.12358498973627    4.11950675881885
In       14.74444153555547   31.86460800893564    4.12980647032954
In       13.34103410839968   29.27013158297146    2.02793301437022
P        14.41921708028057   27.02049144185552    1.77114092629249
P        13.68616202518412   31.73809065924912    1.88468148411169
P        15.69439819349439   29.56670457084261    4.33312727970249
P        16.29246792436080   24.87070132285529    4.32225979859261
In       12.63383243785484   33.94447056996685    2.24387786847631
P        15.46335647307822   34.21859766279299    4.02888542387239
P        17.94686037095125    6.05265367352409    1.66756867319713
In       16.39964669278081    7.91139797939374    1.92936393341449
In       17.97154982019325   10.13602123956254    4.21817974946753
In       17.73086921699824   14.68530179785955    4.29862221450702
In       16.21748415137350   12.39298171794055    2.07236515397480
P        17.34766764456059   10.20451568516186    1.82549233692148
P        17.09745281321330   14.71298120125484    1.90010052824970
P        18.75422900304369   12.45216826727679    4.63842163353824
P        19.29704269453153    8.13038262504692    4.58326470216736
In       16.07727409863420   16.98458360152925    2.03764620622805
In       17.77872972386205   19.50241331608789    4.07138070432379
In       18.91361012492075   22.88753665966564    3.97573055414091
In       15.82368754093037   21.58567652665872    1.87712018731667
P        16.87449711296403   19.32642962538712    1.77958040134934
P        18.01771393475458   22.76272101354571    1.66532010306397
P        20.00002424429353   20.65543865077909    4.28795034575238
P        18.35020822390923   17.09384467709673    4.36440517886585
In       16.93260616870007   25.00762599286742    1.93545514786436
In       18.42952216889186   27.62753276678363    3.99826275487578
In       18.38363752580812   32.06852851828588    4.28975777352624
In       16.56837174440876   29.75750650175379    2.01620687295979
P        17.45971797581756   27.44463964602843    1.71779863166134
P        17.42649697388003   32.08412595697268    2.03255517536624
P        19.42686150004786   29.88976995165315    3.85759084092061
P        19.34300231560698   25.32889129533896    4.21420439026636
In       16.25209939594286   34.21911986854705    1.73051310454598
In       21.64078550850167   15.59084318200694    4.85926956183378
In       19.72354085363485   12.62857011907888    2.36759422783239
P        20.93471654685907   10.56301625685107    1.93486026084043
P        20.79070376588983   14.85119047492655    2.68266723690173
In       19.48060280648217   16.89334141100723    2.15480195909489
In       22.68288476089256   18.52108370954296    2.82589047091244
In       22.34255974986740   23.00721071574425    3.64785817041931
In       20.45809996073519   20.76430774368114    1.84754803443784
P        21.00136071973690   18.48981305579559    1.01229979037096
P        21.07250156113441   23.17024770900462    1.53886940302005
P        23.35305519113882   20.79229133696088    3.47587702878449
P        21.18504420970116   17.99592209188716    4.71736696048682
In       20.12497231000015   25.44875706542498    1.85985729383609
In       22.27056009968329   27.48504154414719    4.35524418253842
In       20.26395728194543   29.68145051402480    1.56479423246830
P        21.38995804065622   27.56864455642621    2.10241256807494
