170
 energy: -12.525242695526 gnorm: 0.000565905769 xtb: 6.4.1 (afa7bdf)
In        7.26822205138415   11.29154254876623    4.77648912550542
In        7.50187241804175   15.70514676012336    4.00759196931687
P         6.59523516978626   15.56967600671542    1.76639846225618
P         8.41149570331740   13.47084955171674    4.63461804875939
P         8.33270986788200    9.10116635371828    4.86695354239799
In        7.59240160246147    9.48949931485407   11.06402489236465
In        7.51752576793803   13.88569010809046    9.84283586492706
P         6.65277415020793   13.81560576903079    7.57864863129213
P         8.50884598282974   11.70834929361758   10.53815679188960
P         8.30754095532735    7.22385545186830   10.57532635507925
In        7.35926336629703   20.19138082510968    4.14294645534144
P         8.45355807479105   22.35418676749579    3.91258424448349
P         8.45150634214398   17.98844264285256    4.32305234268391
In        7.51461181875385   18.24479134442905    9.52586888563406
P         6.68318636460271   18.03234466745010    7.25680848189139
P         8.42920494186332   20.49998213762386    9.91025762355983
P         8.61337852473117   16.10171829550189   10.17459562306516
In       10.82718890381724    6.51699860949491    4.70981281195535
P        10.18556321194594    6.53214741096811    2.34272234877695
P        11.75237220473261    4.30521297955930    5.27704611498770
In       11.18306961341635    4.57452585874745   10.44223712723383
P        10.21042633199752    4.60473589000581    8.18626470400327
P        12.31646927841643    2.39964628485695   10.66905802067892
In        9.26134816410374    8.79843949928344    2.61312259370429
In       10.92532213728226   11.09642670370765    4.53478414474587
In       10.87042474983771   15.68500448127869    4.30287141639632
In        9.36644746221213   13.26928895681640    2.35226716259182
P        10.34447004933093   10.98563831530112    2.13029086680275
P        10.28567427667767   15.53894206464915    1.90558474028061
P        11.79565292999733   13.41893072816024    4.77225095802438
P        11.77698108291752    8.79976771414183    4.99910889991516
In        9.20248737182759    6.84525763180062    8.33064553835086
In       11.04757976627020    9.14386448637491   10.20366016755582
In       10.96939352981732   13.76713478876114    9.94422448178558
In        9.21828846454372   11.35829256967734    8.19214755120638
P        10.18736674240291    9.08179562102755    7.87537880006072
P        10.14069266855804   13.59888844169899    7.61060478313641
P        11.85440037679879   11.49049781329830   10.44547350487287
P        12.00733897114871    6.90215814485929   10.70660398064195
In        9.42884506429611   17.87230152269379    2.04296922880300
In       10.98974400618987   20.24192346445265    3.95387586859844
In       11.13696910663848   24.79409735369408    3.66597750350471
In        9.50020097839732   22.39222792452014    1.69587820907339
P        10.44852398495371   20.09463453018372    1.54280189021554
P        10.53001147326391   24.62265385422868    1.27059852750500
P        11.97890314163459   22.51502960719958    4.17877359686210
P        11.85475759643621   17.96818659776586    4.47984696016455
In        9.34804022547215   15.95454320905552    7.80735689550201
In       10.98958675073264   18.39220394458300    9.65955986358083
In       11.18326079904541   22.99345508839742    9.32429040083134
In        9.27961070378400   20.58431813488417    7.61276657523870
P        10.15067503973172   18.26581023515628    7.32690457679405
P        10.30078475572659   22.78219182933718    7.01104977573140
P        11.94173633232113   20.68659817657464    9.85944221496436
P        11.84660222228722   16.09716062211604   10.14735438525922
In        9.09367959527904   26.58242920060936    1.10349488969718
In       10.79984216426769   28.92426087496343    4.46657610399344
P        12.22760031107201   26.99999873395993    4.05121870684210
In        8.82953737072894   24.72476684180430    6.95480234102564
In       10.95087450038736   27.32486776293076    9.45661908646164
P        12.21099040640914   25.24856557081109    9.55273882512488
In       14.26949055085665    6.51101872947903    4.98167432171338
In       12.75034976811075    4.12421809342475    3.05555268832833
P        13.74713223412838    6.33148724459039    2.56316896671610
P        15.19054319875447    4.25946502569790    5.44526016176628
In       14.66416900586255    4.72045940300756   10.39013870163431
In       13.02523629118688    2.12460024261472    8.36052554974081
P        13.59251205235166    4.51358828445101    8.16151142872265
P        16.02305020745220    2.67800687635818   10.46571290766173
In       12.74839622487376    8.61601536368687    2.72061525804785
In       14.24001571112946   11.05703928535619    4.68659792199790
In       14.27376646387137   15.66321501320773    4.42147298986777
In       12.73989429316852   13.25548467999847    2.48208116873301
P        13.60643053441361   10.92229064323221    2.30051562571068
P        13.72381417947953   15.49478490151927    2.01482025394274
P        15.12174000649190   13.37389755643792    4.87900773868683
P        15.20644394357068    8.82033728506845    5.16974401868938
In       12.64885618314460    6.80674553330848    8.32313959998447
In       14.52143235358140    9.19761082837349   10.18676706318457
In       14.25744698489497   13.73567885353011   10.08771159190887
In       12.59620479780102   11.33938447641008    8.09018639439034
P        13.58889495715877    9.06713209116757    7.89224360810044
P        13.52797475579873   13.60959537435657    7.71450945340961
P        15.33797240135685   11.53011809055472   10.48825306435944
P        15.62182734171251    7.00464731502109   10.56703790832878
In       12.80950781986446   17.80225040136481    2.19334644936767
In       14.34221386658470   20.16532338622348    4.11897362899814
In       14.53816637607171   24.75767107769069    3.73569822921291
In       12.91032374880476   22.35932918872058    1.88284928150265
P        13.79653427071067   20.03651615583773    1.70973619056596
P        13.76505164623277   24.65164729183173    1.39051740395590
P        15.31123366454854   22.45099195478774    4.26297152730158
P        15.29065541705817   17.92332320059306    4.62542498785601
In       12.65766530213800   15.93495418410228    7.81512712000385
In       14.35551737455307   18.39025017216569    9.72479499519810
In       14.60050938025814   22.91708210920623    9.33008067652849
In       12.63459204916973   20.52048141653447    7.49171463458224
P        13.55180064346410   18.21286448923066    7.38096098162521
P        13.67551703539248   22.73380549102686    7.03423967701723
P        15.40209908216592   20.64962952712719   10.00768108178495
P        15.14624825740904   16.06198534186367   10.17846024031184
In       12.95535859862086   26.98815689200925    1.67425757683369
In       14.87533678008124   29.48204056739498    3.76260803839202
P        13.94112936780531   29.24030807222132    1.53774977543660
P        15.39565768778758   27.08090485064664    3.93510272722957
In       12.92767534997966   25.09791370398366    7.18928306650041
In       14.99416458442044   27.63226682780821    8.97372251198325
P        13.90357577725148   27.32996639258311    6.82177709854255
P        15.44065003768747   25.25400237056381    9.41719318675023
In       19.06653527664174    6.64794946940369    4.10539966306697
In       16.37292351693824    3.92630444932738    3.34350196727719
P        16.84510927293994    6.32953022820665    3.11051185987084
In       18.95693615369949    5.29279064900906    9.53849447847380
In       16.84093940668842    2.46895980964367    8.19899409424768
P        17.38001261907112    4.81427266930835    7.72096794958865
In       16.13109915009154    8.69450516465414    2.86783380389016
In       17.60628787853007   11.09478695671617    4.75891539840216
In       17.72558792469377   15.47479855923563    4.59983778159143
In       16.07178175220827   13.25319774586759    2.58602495993546
P        17.00805781099446   10.96849432975510    2.36306901771700
P        17.18846529254839   15.44377232150493    2.18768078701621
P        18.64714641428228   13.28761594658196    5.37299431234769
P        18.99146936250343    9.02561541435216    4.72885137555209
In       16.11900073975487    6.90706036181315    8.14974551157762
In       17.90675097956789    9.45198623784650   10.06598495457731
In       17.65287951311139   13.88621749952921   10.55192432635799
In       16.17616292737340   11.64386031866029    8.16433703111523
P        16.83305368563707    9.26320234372388    7.83465292685874
P        17.72704129209304   13.61286387661086    8.07846102256314
P        18.72143440342555   11.66317930478431   10.84157904899648
P        19.58087287856610    7.62387123605172    9.95808648019983
In       16.30351540042013   17.76885546637362    2.36184836546763
In       17.76621628109835   20.12469919921613    4.35006636034137
In       17.97208530731072   24.79996109462772    3.80552497044864
In       16.35430195737568   22.20746463819427    2.01621654989192
P        17.43255207834932   19.95303725041630    1.89745543213159
P        17.08981759494417   24.52606067412631    1.50836976840459
P        18.63673308662210   22.45597662544925    4.32920104880548
P        18.50710650147473   17.81587351279009    4.91502632865432
In       16.21346918812386   15.61808602928248    7.98246480942396
In       17.52928684693358   18.15661846563268    9.88551106823206
In       18.54052590559472   22.53468445808771    8.77298373942133
In       16.06719313857609   20.39938391472504    7.63363436115888
P        16.75877266117393   18.00661755859787    7.52181126721497
P        17.00191941219452   22.56030035847739    6.82384286205605
P        18.49186958909025   20.42626453663241   10.07731174789208
P        18.79883938895875   16.07463499800458   10.29561857509640
In       16.34476391416981   26.89654462559535    1.64095371766147
P        18.05185254869891   28.62711976967926    1.71653156649768
P        20.02841986941951   26.08823324540830    3.66989908437763
In       16.38314112801377   24.95178981494231    7.14496308268184
P        18.32435319163758   26.40950797581139    7.28403813751637
P        20.43366738515992   22.18735688664922    7.28274505657747
In       21.14856358730966    9.75990640342242    3.79926492364098
In       22.04628926888843   15.55521625098007    4.82547902176867
In       19.53870225154919   13.18642408722766    3.03872192409857
P        20.33168604302666   11.12072417290309    1.97074649289864
P        20.66472381578794   15.39374389019100    2.84483890340102
In       20.72956825606162    8.58309250188991    8.01976320935199
In       22.55270555259187   15.14570813177748    9.75786581655476
In       20.39541556424863   12.10534875494510    9.07916201364517
P        19.87084368661958   10.69236107640848    7.12679999481028
P        20.95295773185167   14.32885807282691    8.12097666086030
In       19.62767580218952   17.64567934040006    2.70247763506503
In       22.62591036575242   19.90503386916834    4.05071008539244
In       19.84775890012288   22.25050215022205    2.19249988963512
P        20.52202157566085   19.96151005833294    2.83874212973741
In       19.56901139012396   16.39200691595536    7.96290858790613
In       20.83566194748781   19.71662732990042    9.75303493979131
P        20.00244465535880   18.81005683207134    7.64480716314100
