106
 energy: -6.180910035966 gnorm: 0.000430336510 xtb: 6.4.1 (afa7bdf)
In        5.38688948482151    4.52542413043025   14.62832494892819
P         5.37242490372626    2.97444810884088   16.45920545276735
P         7.97070468977248    5.46726410042720   17.32830231757223
P         7.44521682955104    4.25870423621610   13.31920078621463
In        3.32274218573570    0.76871166450397   19.59742985392361
In        7.26397492528952    2.51066936027071   19.51547580010023
In        6.68247835495552   -0.05748195189837   22.81749809459122
In        5.39972687368658    4.24237068453754   22.16435791303598
P         5.70541836888434    2.11005328265970   23.25830218138180
P         6.55319895366887    4.76856703425254   20.09659912215603
P         8.90880291631817    4.19507210665340   23.15353306032079
P         7.99498304791550    0.51407545864453   20.79240493576914
In        4.70538321677344    2.67770429845553   26.95243919314246
In        5.57729171554682    1.50470000459908   30.82074241604477
P         6.41263078222376    5.21507745087966   29.50869398213744
P         6.24318740536993    1.48871490442828   28.45358438029419
In        7.53776433639956    2.17281068367763   12.09949237422239
In       10.91175328925175    4.18974124729820   12.62743297846084
In       10.16293795070142    0.45303528104151   14.92925278355737
In        8.71026981979309    4.05444513143430   15.46260889406787
P         8.17856054002011    1.64460574237031   15.66119892539712
P        10.38090433456992    5.62254087884422   14.51634896703086
P        11.78854536417544    4.39596373143362   17.34545049830396
P        11.53291799765792    1.95294980777469   13.51008012864363
In        7.62798373843337   -1.32637475593315   19.20965582386835
In       10.44678322684979    1.10341834764918   18.70012051085316
In       10.32008520769856   -1.56775657895442   22.25148753078050
In        9.52450460726497    2.10380999016364   22.01607304892230
P        10.60998764000483    0.46781527782716   23.57683162023275
P        10.46872312882753    3.18665808771096   19.97437500015237
P        12.62333326447679    3.52836537843894   22.53821521216117
P        11.39711476574793   -0.55976329717317   20.26566111258602
In        6.18398748780956   -0.87568754734649   27.78871998850541
In        8.41187374510783    1.39197066843782   25.94859253111532
In        9.42518168942760    0.16451168086095   29.97848657475631
In        7.86165477806438    3.41306325828507   28.70178288757031
P         9.25001894409515    2.51656492842034   30.55514565411160
P         8.33559576236136    3.80162497447611   26.29336528322100
P        10.95596578357895    5.16420590360803   28.44023706899360
P        10.00329562242662    0.45566781753484   27.59444673397917
P        13.82786285948916    3.08385847117175    8.38379597819579
In       11.74674399288222    0.68943223591260   11.41813758684498
In       14.33944641039932    3.55009929705763   12.34564438277591
In       14.18994546008731   -0.26547746363954   14.44095306411710
In       12.66716199748315    3.03757441228242   15.48402606152368
P        13.72489062851723    0.99919858688635   16.45318929447620
P        13.75861038766520    4.90732830804493   14.27942161734792
P        15.63653110212225    4.04189389728971   17.07114134356754
P        15.40698414597262    1.45845635364466   13.14983269845493
In       13.34930200672762   -1.78126905129171   19.44185971144883
In       15.92273656501226    1.19129581580406   19.19006365536951
In       15.92107864381647   -0.98322439350058   22.67870231436767
In       12.66691677155614    1.31179914774051   21.40594119667650
P        13.62155674878212   -0.30096776068904   23.02963214813443
P        13.75079945203889    2.28207114789555   19.41511066207543
P        15.72717981659812    2.82831253843281   22.26479520939051
P        17.24840533880823   -0.23811695193755   20.72975938071183
In       11.98912431169067   -0.81778442317559   26.95572880023373
In       13.97328074521709    2.18195400318947   25.48641022049918
In       14.78877041632381    1.42923413515727   29.19484433272037
In       11.03239884903632    2.74676543625997   27.91947895470009
P        12.48000653249568    1.92359972420357   29.74235748338928
P        11.66649583142464    2.96794878232165   25.54940850535097
P        14.11015872403650    4.80587313001681   27.64238231295534
P        15.86764251189668    1.65763085058850   26.98955937550060
In       14.18640569089875    5.09354887189839   31.82855705156349
In       16.04092881749895    0.28628934054165   11.09202081341626
In       18.13958069911250    3.51468384677414   11.75505739404887
In       18.43733184529365   -0.34486131932505   14.13033586928936
In       16.35005201692363    2.79292723392571   15.06897067684283
P        17.43519016310432    0.78519748821205   16.01731971787043
P        17.26440687470680    4.64748362616443   13.71082559061542
P        19.29607171967343    4.45466950215923   16.81800960403706
P        19.25439201631929    1.65181254351297   12.93397142091797
In       17.79132023699327   -2.24958769169295   19.43501098074622
In       19.56192959072606    0.98457042552391   18.83759899950156
In       19.94889730012001   -1.08344425645442   22.77775718153362
In       17.94555523749575    1.95841102884816   21.75142284722522
P        19.05493874949896    0.96906340991722   23.73523487399637
P        18.59971854831069    3.09007765918120   19.63481139614195
P        20.07443275903467    4.53407940244944   22.69194713037762
P        20.79587562147175    0.17508613822590   20.82748412460198
In       17.01885648357604   -0.44293577072095   26.54764612433533
In       19.55748708873631    2.96189782932772   26.42411116566300
In       18.68831730850274    1.69377935666447   29.70494062456006
In       16.38987528923838    4.11802026869700   27.08173401036735
P        17.68560130611584    3.82628482638419   29.16024060627082
P        17.90054197961465    4.19431890273957   25.12073476130855
P        21.16022286229558    4.60987561438433   30.18072456880853
P        20.52455234355186    1.39127653131317   28.08290029513209
In       21.52163300131694    1.28155691007161   12.08660462561659
In       19.97246975663056    2.99438098408285   14.95513109578339
P        21.59465021758903    1.40893968549182   15.88077674856740
P        21.17401723905950    4.72015311453445   13.69854204005811
In       23.18047378819981   -0.22260828763660   20.43595969453293
In       24.19642811938276    3.68300591411614   19.56705124282993
In       24.56703916938964    2.04155775549695   23.63618372474047
In       21.12244059394369    2.52534222359923   21.72046237141532
P        22.19236692320669    1.59369450527631   23.74399317846653
P        21.78462816348167    3.46364894854886   19.53189803862995
P        23.45325991227980    6.04910477799795   23.42857918516748
P        25.35367249937120    3.09715199835583   21.60806196146271
In       21.38989654377563   -0.63116308736424   27.02963244397183
In       21.17796569479039    6.31961200121921   26.63006729507066
In       22.22760546200801    3.14027289702417   28.58492868674593
P        22.58691993780297    4.37709460912444   26.49752697716753
