22
 energy: -1.469801623174 gnorm: 0.000683298911 xtb: 6.4.1 (afa7bdf)
In       17.20145677601186    2.94101480699191    1.31944524730493
In       15.36747564391243   -0.16847930110153    1.22746480471941
In       14.11671784069746    2.98812269715249    3.10551090265238
P        13.70284760351096    1.58686072677603    1.17649775039802
P        16.47925700238238    2.69289297527142    3.66611250597548
P        19.58469114185868    3.56474995400515    1.10668256883386
P        17.67388036126348    0.54996562404532    0.84491044485433
In       19.14390904550080    0.53640555956981    2.80786119398297
In       22.82132325832122    4.93871125181821    2.99795212462139
In       21.51377014371893    2.15459067958194    5.28540796476785
In       19.37881773702118    4.55595853357543    3.35338390732219
P        19.20028002217647    2.34928952136841    4.47146155314321
P        21.11724552348445    5.83804589604425    4.51556779333604
P        22.45272683769821    3.93818107608150    0.77562517668146
P        23.53394426290565    2.82335912490648    4.06465089015856
In       23.73479207881070    1.21753141314532    2.20259440884623
In       26.91347398779462    1.91155328238756    3.93831396058128
In       26.84487846720750    0.22630732929564    0.57689626770944
In       24.89880639245377    3.91161214906115    0.45660946604363
P        24.82063411911854    1.47621566705586    0.01114380554741
P        26.05894800909313    3.76028537870506    2.60943131294399
P        26.76498706951889   -0.29281343284606    2.94405594958164
