52
 energy: -2.732264529888 gnorm: 0.007864340444 xtb: 6.4.1 (afa7bdf)
In        0.92488842396747    0.58923768162662   11.40635361229253
In        3.34777752386357    4.55241050263466   11.36106974472707
In        5.27425062780912    2.59370977791687   14.08143507292566
In        1.09433360305017    3.60341850478650   14.56740744533356
P         3.06036426816819    2.25626912311003   15.00187698261186
P         1.37852751964652    5.19121344730042   12.69864832506337
P         3.50609316240347    5.77021343656107   16.02787850087030
P         5.03299685870262    4.80663194483390   13.09726436106500
In        0.37970707340484    0.69510793522586   18.01428240353329
In        1.76508671935785    4.53541208458269   18.91752713216009
In        4.59477487561656    2.92793886594590   20.51742604220709
In        0.51649982422064    3.88652127776592   22.31840666580764
P         2.55755838716611    2.68872626263754   21.80341119475032
P         0.35001175826822    5.67405768467202   20.61157793577140
P         4.04761036155333    5.93865892857137   22.79273514513683
P         4.16156631533552    4.22181868483272   18.50770811624174
P        -1.26090248604390    9.41765695407264    9.44413463770997
P         6.32843516346148   12.33749244676486   10.23268120002581
In       -0.70063834583047    5.71788945314402   11.53323766294292
In        2.44413746523308    8.49888512811261   10.79576777166271
In        2.67641347079852    6.89765037281421   14.01404252252637
In       -0.82302327635755    9.18389942409331   13.47568275683283
P         0.47021724220180    7.65605072431913   14.84758576372958
P         1.17230478638459   10.01824827958374   12.27758491044742
P         4.74023392022900    9.48475084180983   15.48485337747525
P         4.22653317220026    7.82840068985474   12.30704925814169
In       -1.86802477555000    5.92792214869588   19.62090194072609
In        1.04684955098304    7.88167011000040   18.26584246560869
In        2.30722804656360    7.00699067674212   21.44175369818284
In       -0.86850172087481    9.18457057869106   21.73488095556793
P         1.16188369910492    8.62341395931559   22.93431612997315
P         0.06897915612630    9.77447296478865   19.52673802735361
P         4.40432791979624    9.95018538341503   21.70817550910910
P         3.26420484648215    7.43299202566180   19.18891001550098
In        1.27358359906752    6.03610437651925   26.11986313531087
In        3.27035464397148   10.98407552316250   25.55787098060597
In        1.02259373460681   12.15452623911256   11.08912170987703
In        3.93466983251958   13.53223126473958   13.26692776428729
In        2.70884843836592   10.20792305440162   14.27841084037164
In        0.00406794584234   12.77614335517219   14.78266043837420
P         0.96726190886180   10.87087529461459   15.88629936639190
P         2.06051960842771   14.04420924062782   14.70392547068843
P         7.49196004994914   12.12933805527332   14.92853774458473
P         4.23050707606949   11.21488673456571   12.61408068206241
In       -1.20616749131434   11.69383911207811   18.73774868744908
In        3.76580371435076   12.63630459215643   17.70924469530803
In        2.34598813368380   10.39353792464340   20.43626558032880
In        1.45597068334605   14.20801513784361   20.37410570001283
P         1.27384764681551   12.19965768751981   21.69885734204991
P         1.85031229491911   14.09956880987332   17.99183698964379
P         5.40445096626891   13.69213859888675   21.62932224712058
P         3.51895707678415   10.27833169391326   18.25993334152877
