12
 energy: -0.666742502592 gnorm: 0.000076124677 xtb: 6.4.1 (afa7bdf)
P         5.11631495276054    4.32121022813072    6.31958615249603
P         5.85285088709152    1.52306466624978    3.52333603413523
In        5.84774178906158   -0.17061321866980    1.83057349426340
In        8.51982343812386    2.91369381785857    1.73995666990588
In        8.52049346846453   -0.25928837815691    4.91427174046299
In        6.87061513187493    3.10918823623902    5.10863134748660
P         7.88185431656525    1.39365984825157    6.57679216967660
P         7.88136227850141    4.57685591591345    3.39248987071323
P        10.15852990798037    4.63392029901794    6.63775742785520
P         9.54702645516186    1.24068778258452    3.24023292930203
In       11.82155574168511    0.59451084191203    2.59431280035137
In       10.26787663272957    2.92839496066916    4.92729936335159
