326
 energy: -22.312623707034 gnorm: 0.000405952316 xtb: 6.4.1 (afa7bdf)
P         6.54179560561586    6.69533291329180   15.87518362022940
P         6.17556435430349    3.88839476832915   13.86831824357023
In        5.54050071773805    4.14696837196302   18.71383506782957
P         7.56235121655162    5.70792049375545   21.82276014785867
P         6.91466092145090    2.44383412375908   19.74561061683906
P         7.03629710554442    9.69337632309287    9.11540391092396
In        3.97722013429610   10.06301973625608   11.40217738984165
In        4.95527925385730    8.00153824743607   14.52797006462570
P         3.75456827658156   10.06606793167439   14.98472033153442
P         3.07755694407414   12.26128554081883   11.87329562720809
P         6.35356479018328   12.75160183378024   14.78558756910636
P         5.92815634354339    9.00145872212429   12.46448630820885
In        5.88415433552700    9.59973157608555   17.62917568708885
In        6.40924755800132    7.55876678440533   20.73096984292929
P         4.01889392802625    9.50652918102212   19.23573031167637
P         7.13805101728591   10.30515099121534   22.57419216959230
P         7.76179061211637    8.83917876962718   19.05765284758116
In        3.49075829355575   15.68987765456572   10.68852638761260
In        4.23497022533674   13.42580097299073   13.71622695090366
P         2.48319160340807   13.10028875810237   15.43523337674643
P         1.96449305189346   15.37212305881008   12.55704472423461
P         5.20757456081749   15.72092083963388   15.66973779531959
P         5.40723119357630   14.91174394385740   12.02879358295324
In        1.81587797116713   10.41701991456687   18.78152823562498
In        4.71933598805260   12.77657045062514   18.34018532140335
In        5.22715659558374   10.69975399715704   21.05946777802374
P         3.60297919685594   12.33655886822037   21.87293375328690
P         3.57950984828659   14.92991308907517   18.16768157526848
P         5.96547943267592   14.84696049056217   21.40584484973547
P         6.75141904228597   11.90666905830467   19.46547852012488
In        3.26591705018878   16.48985642784737   14.33168816693285
P         4.44051833890840   18.24918652537752   13.05021259679002
In        4.59229398658933   16.27635788026321   19.96471565866684
P         6.12632840727963   17.28675586674887   18.26374875350381
P        11.73683680508618    3.31108206678843    8.32233596551461
In        8.86468561222182    4.23311979030580   11.55653406865967
In        8.28665023997626    1.24104860246381   15.00851939569818
In        7.99181579709934    4.76886868871143   15.25367709202996
P         8.93991591656915    2.91995523349894   16.67025389830357
P         9.09101251002011    5.95650227349821   13.32244267825723
P        11.29337884073636    5.45596090707649   16.26038217097372
P         9.38653344412816    2.37700125835030   13.10960870059341
In        8.03489134261633    0.34994496572084   19.27121625065874
In       11.63587804620525    2.64412204800282   18.90236863190465
In       11.11628119732699    0.06421333774799   22.08092943911450
In        8.69669896165949    3.70742903199029   20.94282452804824
P         9.66473450651042    1.96990370619884   22.39586224307171
P        10.00533325372642    4.52389023894708   18.94147173337739
P        12.01518045025959    4.23470192129630   22.34507959205065
P        12.61094096251186    0.80160370779504   20.24580313982304
In        7.67711534073202    3.46838234911383   25.44479395994379
In       10.58071282534096    5.24661733116368    7.43120298427972
P         9.00710231053586    6.93385014582769    8.17289046833923
P        11.09882309160265    9.47242683839070    7.74590800397159
P        11.86799582318891    6.29174269835929    5.63546819658990
In        8.06462783744933    7.82223033004944   12.04672549213565
In       10.45083051768909   10.47933669215796   11.63393099066541
In       10.39041149334801    7.37491199786335   14.91906700311879
In        7.23895697756975   10.62729245738807   13.88139672624618
P         8.69955516329854    9.15765242041239   15.22392253636193
P         8.34688963299116   11.74366708088317   11.91819195723473
P        10.81083983922227   11.65378938775589   14.95593998600924
P        11.38094157755047    8.59962030151428   12.95563879739715
In        8.76299632692368    6.63474950080396   18.49807967498240
In       10.99910144658996    9.26516561808073   18.08015486476772
In       11.16436689349905    5.90804823997550   20.72675417920184
In        8.97264502608557    9.91883611065330   20.96026556891036
P        10.00924601379331    7.82591828996159   21.76900080862993
P        10.24624387495268   11.29638706187930   19.28545585037600
P        12.25743514711302   10.51825629952749   22.02650855365744
P        12.13983849523222    7.15363567911204   18.75421163448001
In        5.92147405529028    7.74884020990872   25.30467148058112
In        9.68459779320093    9.83463595302197   25.08211355937122
P         8.25459050636183   11.75575936670313   25.60531081270745
P        10.40563936294947    8.17082676469688   26.72115781813498
In        9.76539451919411   11.45975635022741    7.21244553298171
P        10.02974470850311   12.84312262345307    9.20163068546469
P        12.32993696721836   15.55205484110506    8.91155884869612
P        10.52522587733725   12.95691932473175    5.43589166000172
In        6.51512487069964   13.02330754238409   10.88233983820202
In        8.96724568593170   16.00558575375454   10.80314187510394
In        9.61072337032229   13.24315197761662   13.50247719336913
In        6.72706152607155   16.14951496656608   13.74511874546741
P         8.81594248199862   15.24381833244134   14.70045340669407
P         7.90440210961233   17.75163282922751   12.18969139645805
P        11.40150604025103   17.70094768702930   15.00041973663967
P        10.74810348053971   14.47805005724648   11.60785703680444
In        8.48032853390038   11.98177718180078   17.68917121794214
In       10.92076124176725   14.68501867265705   17.63769713951325
In       11.44392613213961   12.62957917097318   21.02042473467302
In        7.89054903683643   13.30936253105975   21.19804673471737
P         9.71526619706194   12.79923520827822   22.78850358213388
P         9.33547878645194   14.51561768650244   19.53428848116990
P        12.32026892941217   15.52935671154390   22.93057279752993
P        12.64469163522020   14.05379420565669   19.29063746002988
In        6.23046234521565   12.99283140300363   25.10340056665656
In        9.21717789207795   15.77310995799008   25.27280380625170
In        9.15118542841794   12.67161592390736   27.69784362198126
P        10.65003882448474   14.10388799914999   26.33335298462450
In        5.90244524659844   18.72702371184279   11.14058771476423
In        8.54829442940564   21.54662495023141   12.06996418210407
In        9.30589287062299   18.60694787589171   14.07035280245752
In        5.85758820002210   19.06823901051958   14.91581703966524
P         7.83478009637735   18.08097395075695   16.02011264831893
P         6.94937754922697   20.95111113597726   13.78874577057503
P        10.31769449427682   20.70666995086916   16.51417739168425
P        10.53183323377743   20.14868215578686   12.50960666471940
In        7.30193613750778   15.11253023349015   18.24011480445109
In       10.02775000636390   17.67172303155985   18.66670653056977
In       10.35855875672855   15.78132125743161   21.44484838302210
In        7.02376074272248   18.64224611867492   20.15357400944617
P         8.26917756035193   17.09581393594713   21.59692422883882
P         9.13351016361738   19.77120140248226   19.55172878221499
P        10.30703836427791   19.51338692353090   22.90403000313490
P        12.03360827602178   16.94081330780418   19.98550878911255
P        13.86347305047838    0.47320021780472    9.42730173659114
P        16.70343304393466    3.81348189624452    9.01214351167725
In       11.01689160307274    0.89082538153730   12.04441151971382
In       13.85859075671049    3.88928322374406   11.40264677393344
In       14.47877825344003    1.15132093089622   14.16118606346382
In       11.03227451265236    3.77073652092356   14.43456178622837
P        12.45507263837955    1.92739261180089   15.25363053854197
P        11.95552532534091    5.02868901324598   12.48233470680100
P        14.69863734144140    4.62299855485229   14.89920494229564
P        15.54387034024430    2.28167464757833   12.22058440906387
In       13.24027490166809   -1.11983160404199   18.86960897665626
In       15.10568280401911    2.00588227567782   18.37296694398444
In       16.74120569312885   -0.01189657161362   21.60842805351795
In       13.67687093561672    2.49227425425564   21.77651864739925
P        15.30575598202808    1.21266287996092   23.12050196861147
P        14.46073005660470    3.87388710048045   19.85712749252928
P        15.96637221440860    4.51699360481810   23.18579415945206
P        17.09125210098270    1.67212720572261   19.83165441733104
In       13.59004583724361    3.18534522330372   25.93113534205160
P        13.25566910005581    5.56109280112043   25.51158446122605
In       15.00876435225255    4.86065451414198    7.61660808234848
In       12.97578207467037    8.09094161011221    6.92073694314899
P        13.81294477125703    6.66657671228811    8.75573466051228
P        14.04805504361493    9.57561720275799    5.25913103063801
P        15.97509605929088    9.45865741351254    8.47104660049883
P        15.31140389790533    6.05975257608419    5.50111516945535
In       11.22852866781190    6.95422122745467   11.10146724959806
In       13.54942827970132    9.70007546985419   10.79331862262340
In       13.32505420177462    6.48201436233838   14.05887582211031
In       12.63777015563462   10.03253467360007   14.58838756709348
P        13.49709404690363    8.12220995591458   15.94875517921251
P        13.72999841272193   11.27115832980516   12.70114804549631
P        15.65420965093165   10.77194368709813   15.71381814143936
P        14.31065199322103    7.79664889619559   12.17774263689778
In       13.94036947104430    5.55734866118036   18.12736701358579
In       16.13226727738405    8.18541818950481   18.13833742036291
In       14.80022042422836    5.78976779686512   21.43835149541489
In       13.02691674219647    8.65303952579276   20.60526055015333
P        13.26306565941050    7.28822545538042   22.68159466259882
P        14.34298899442329    9.77424958284030   18.77625137799021
P        15.90228161721290    9.08524903089054   22.28183638116807
P        16.58811158457794    6.41663496017256   19.80553602855727
In       10.87600721487291    6.14783480511326   25.42820061829138
In       13.49731505016652    8.97827091264323   25.57799474599350
In       13.72469348241930    6.44731615558383   27.77575308588790
In       11.44028732367497    9.46582900421991   28.52251305186130
P        12.85213178784009   10.87749277681944   27.05564045021238
P        15.41327680446517    8.03870803763117   26.86246525644576
In       15.14934308138506   11.12735015994439    6.84132737443221
In       12.14932853614655   14.12948651274673    6.89747424027462
P        13.09658548329850   12.05972157783361    7.87723109592896
P        13.57495660951064   15.22735332743381    5.19654143949339
P        15.39071212864954   14.57876153854446    8.09618949745172
P        16.49808985997517   12.56410054821825    5.34723266612307
In       12.89596223975162   13.24038190958445   11.44176851387510
In       15.18150824093926   15.96591384210482   11.29017200589579
In       14.84544222698855   12.73287844316204   14.40521478066952
In       11.88644781885398   15.92302322757139   13.35158851887554
P        12.87300628713696   14.17045770593889   14.78727674166963
P        12.99808785301697   17.14982225436254   11.42960571597961
P        14.93685512968045   16.72613010875506   14.69905558634931
P        16.03124299506911   14.05078712255628   12.62747318733449
In       13.29766105466818   11.93231997889994   18.17290434756951
In       15.72883343486293   14.44814401427976   17.95890593675921
In       15.35352618655958   10.97449753991107   20.77788704545926
In       13.99484629645283   14.77050705365228   21.28385111403900
P        14.65850096542860   12.69460658925072   22.42150638258202
P        15.15165826431966   16.20961101130799   19.59082754449964
P        16.49126367437471   16.26525658295495   22.85457913077025
P        16.60283297129721   12.81193580400627   19.60178220552919
In       12.34282359374643   12.59883857922062   25.36225492801317
In       15.39940494798669   14.76839627441544   25.96563760910511
In       14.21007452495621   12.12127616313653   28.71382445070305
In       11.81525884382891   15.21564326907503   28.22047495954048
P        13.45960512842782   16.08863123409364   26.63278965890622
P        15.99171965000337   12.64916096148906   27.08782059782738
In       14.77801100830465   16.59075246615942    6.83784764787378
P        14.38826567453970   18.41255101479166    8.40202133567598
In       11.44109298123170   18.88867184091443   10.61121481512455
In       13.74727214292429   21.89969835729456   11.16356735634303
In       14.09199495228211   18.53991505550178   13.24175282662920
In       11.58594065398853   21.25195758654433   14.49537172857308
P        13.79821732191600   20.25937261657964   14.98824826821538
P        12.36152954809375   22.93675808161908   12.85800116998487
P        15.68164910647230   23.18412195245636   14.62804912165899
P        15.28991188177662   20.02281988951601   11.59696933872350
In       13.59199616014330   17.44349072770160   18.11534245679124
In       14.45702944412435   20.97957949656046   18.63578286277090
In       15.99860544708498   17.97014865690623   21.13554369841211
In       11.99965707612746   19.15395939962407   21.17737184139836
P        14.25484814671820   19.37216125586572   22.14243063652398
P        12.11842867335349   20.56705327777555   19.15696998560600
P        16.26547872341358   22.53350474837222   21.54356413456525
P        16.30230968184181   19.41321666816042   19.10084395590410
In       12.62030050589564   18.10551945266985   25.59581139288532
In       16.44176664549671   19.80523046254159   25.68578113889049
In       17.53655749220882    1.05263821878754   11.50740703391251
In       20.15689531963654    4.89080074932774   10.62507378956800
In       20.53533023876187    2.94597935872524   13.99314845392867
In       16.73656437978412    3.97028696648572   13.66729360082190
P        18.51664187546774    3.36827036465252   15.25687290863030
P        18.04921310921200    5.16469354536465   11.87595186881075
P        20.53162773157696    6.24298966979172   15.75428198524363
P        21.62665569287347    4.60664698484454   12.56001158634277
In       18.73187141664433    0.85085828732994   18.21188496542329
In       21.06758062722173    3.92781080514943   18.34369059749298
In       20.76987522284561    1.82834057511781   21.48721513520734
In       17.48795275036522    3.49978848105481   21.51922273299856
P        19.11580277988050    2.54890361307147   23.11490211645415
P        19.17467934458875    4.36145174181852   19.87452771683063
P        22.32422126369443    4.17292223105805   23.32655368970275
P        22.47029737413069    2.73091763550649   19.95814597415414
In       16.55366290457208    7.82760156818317    6.71391037422911
P        18.44883386082010    6.72837979400654    7.79950245957988
P        17.49391125580018    9.37373122549951    5.02283035221760
P        20.92569317005728    9.29455054279199    7.58071735413060
In       16.44067661202637    6.93084710365510   11.26386580048853
In       18.86279166428048    9.31524783388979   11.30388939715171
In       19.08808190122379    6.44802053666418   13.76660704543698
In       15.66387393998481    9.05400987950276   13.91121156853681
P        16.93820462533984    7.13381231303853   14.77760239079264
P        16.72866036936388   10.31962398821544   12.04356303497861
P        18.95366051710459    9.82286958063246   14.98426381879246
P        20.58820975147415    7.94119746155142   12.41603939844474
In       17.33517710808119    4.66047493804909   18.22232262143057
In       19.52399298291754    7.52738319178635   18.65597419661862
In       20.80331534170906    5.12069304956105   21.62622620315462
In       17.77733614508958    7.59878913407757   21.65958781681723
P        19.18343481690972    6.21239036168060   23.12492776766697
P        18.46665257013405    9.34111764358388   19.97575821590810
P        19.67327862422113    9.48603355050161   23.47754664008193
P        21.51396803734507    6.85507591541261   19.97046511874454
In       17.10652119066113    6.40432147261211   26.16161289343265
In       20.26306454722030    9.11055334762692   26.98249397840992
In       16.76757786598011    9.68995617286534   28.15774184435077
P        18.12209425490001    9.84929036817083   26.06620057350965
In       18.95259803884942   10.40739778808638    6.69753841485046
In       17.52543519258287   13.69968275376138    7.25469047002903
P        18.45997697380746   11.87113507605009    8.59803693103531
P        21.70487126122975   13.94358232731208    8.04664164315131
In       16.04966113884873   12.36004793778983   10.81760918164546
In       18.46291028488615   14.99721368472845   10.74837880534215
In       17.96959117425108   11.71527162432869   13.75280556400968
In       17.09728560577610   15.57767385186735   14.31461062349370
P        17.69606952720371   13.46136899695690   15.50755396461556
P        18.11211464680073   16.81526284645605   12.38564186477818
P        20.27467588597294   16.59264861475343   15.34208539936053
P        19.27613308471214   13.15204613993647   12.17303530843335
In       17.82887798990564   11.07076635074093   18.30587003442119
In       19.33307707618874   14.13104094171011   18.41667216368966
In       18.56399371560008   11.00979676923422   21.84371301616767
In       17.34596711688844   14.49135174360496   21.33345263297240
P        17.95003013174539   12.98043573527994   23.20544265370113
P        18.43921733339719   16.04931618369437   19.69682683720949
P        19.76807597329401   15.89216258062391   23.35354758992735
P        19.77521534433491   12.52222474685145   20.25681034279248
In       16.06470081548952   10.96948263703671   25.26375384594150
In       21.73199928529123   13.90340668827090   26.35589458676850
In       18.39728337620621   12.64702876041392   27.71760193433065
P        19.32913587147485   14.15724289841901   25.99382618918822
P        19.18423297376402   17.50545052664045    7.72183084882825
In       17.28113446925923   18.68713708435747   10.99270700489554
In       20.35077605852887   20.49019884883988   10.95776846878045
In       19.12816485891712   18.36359814339136   14.08201958002063
In       16.53817492766921   21.23337635627082   13.41674238920651
P        16.97551030460059   19.30322010362726   14.87870202733835
P        18.61579360731201   21.66677361384829   12.16326288341221
P        21.05271078519140   19.85183984999432   16.33077283385764
P        20.99046285599277   18.60122786482951   12.40368289760647
In       17.53030587706056   17.57840921106310   17.98142375067001
In       21.38418053986899   20.35056727913900   20.11336765740213
In       19.47554619297421   17.46379612098076   21.46833953675313
In       17.76504990815594   20.86862428919927   20.55376389587942
P        18.55967627034548   19.52787262404133   22.46305709253832
P        19.38768543579424   20.49076882599917   18.71088884327377
P        21.80596725392456   17.98763961620653   20.70752953647660
In       18.77862684441198   16.36367158983314   26.87768355892662
In       22.53390098554950    6.06330506959345   14.34643477877571
P        24.00175416486299    7.80153463646248   13.35570488275948
In       24.02398424013901    3.56064076844604   21.68321047597176
P        25.07699264407290    5.62766832378224   20.83859168883046
In       22.76043250073667    8.03543205143355   11.24908678670990
In       25.06567614908443   11.57047424144234   12.66218431846213
In       24.77261041617077    8.73756752054374   15.49693187703630
In       21.29663327757340    9.32423365811924   14.39051144910315
P        22.54511370955666    8.85476112634245   16.47717030501650
P        22.77425102914902   11.12072169930012   13.41278867556410
P        23.91561007940215   14.24274412697000   16.10958393623020
In       23.68526633671647    6.30894732979351   18.94870533942202
In       25.12134114324886    9.90981068873690   19.50394188643829
In       24.58389513170375    7.14514685067066   22.68456210193060
In       21.21997210568982    8.65223504812459   21.70730043732617
P        22.41889512910745    7.64176996499140   23.62194998220481
P        22.99076752354194   10.12055751446555   20.67765846740595
In       21.41042830149934   12.06491352910868   11.58121958001641
In       22.96887686196465   12.04797372587465   15.72441727196392
In       20.29509236551076   14.45458409560882   14.09424739216075
P        20.57827118702823   12.58877650686465   15.69343613539677
P        22.51296523160404   15.20278564341885   13.26991795258729
In       21.28962312929884   10.95327356234581   19.08392701216311
In       24.49734907696209   13.93674420223698   20.08770894885772
In       23.53405911757795   11.18220333342397   22.84297007650256
In       20.77412951945635   14.21295442766156   21.82568829799232
P        21.37458254752580   12.22462508462838   23.18219089412014
P        22.19023785330673   14.63144760422265   19.81556945694887
In       24.50397564691421    9.91425131540012   26.69986882682762
In       21.74294221030558   16.49047415132378   11.36630692711001
In       22.37393674495646   19.28003979061727   14.36712963273035
P        24.18119715141269   17.78642397041940   14.97519706245540
In       21.95324556941674   16.73881845671939   18.58834429007556
In       23.18562549013442   17.10353571850277   22.51423965015148
