46
 energy: -3.027128454946 gnorm: 0.000557196273 xtb: 6.4.1 (afa7bdf)
In        2.79961226862819   10.43940531543601    2.43560891529937
In        4.03058483790102    8.15386150457139    5.27276029274082
In        0.33171387243282   10.55417183950508    5.64553422930667
P         2.29472219027303    9.37718310345055    6.43816300883660
P         1.05905433676563   11.74834273451638    3.60300540102394
P         4.21370667080026   12.08020528728970    6.56475779688445
P         4.88563357104977    9.57426282770078    3.43376636934536
In       -0.73900772750851   11.98726566314264    1.96344798503924
In        2.63037481092931   14.29529123422185    1.45799785519217
In        2.60087108588376   13.13258058938293    5.02389349825273
In       -0.64401406770584   14.78997676325733    4.61617146519986
P         0.93594526699349   14.34528440353743    6.41334068453169
P         1.05849379333015   15.47632722389451    2.95418538321021
P         4.19788105512483   15.57258502883398    6.49592814142057
P         4.26041555238804   13.68756080871434    3.22165091571979
In        0.53004632827198   17.67852452062851    2.01114047396144
In        4.02125721339523   19.74014678055805    2.35436252670526
In        2.76735911106069   16.32394541076514    4.61579151278346
In        1.18677867172906   19.96308080257980    5.32879027761499
P         1.07262931245917   17.60663909854160    5.86923890467958
P         3.06090003436918   20.98909830444229    4.19339979988022
P         4.30589988620891   19.04916202056859    7.03134799126014
P         4.42357920474024   17.41552795550460    3.09185468237082
In        6.16405111066479    8.62537147963452    1.58686441762524
In        9.53556515156217   10.50379254165069    2.38525681839231
In        7.91432951595386    7.98585689480410    5.32188131534008
In        5.94379616289091   11.15689031854452    5.06350434433901
P         7.02163150409516    9.71484183855962    6.75068463641896
P         7.74017175331388   11.84001313038256    3.44175403664763
P        10.50367155204790   10.99543362303377    6.20514106227486
P         9.56138926816995    8.40695325558636    3.60254512958734
In        5.97200711456991   12.51556041249260    1.84886514862779
In        9.18068521598556   14.13511887689693    1.69736176914749
In        9.29807708227593   12.83664657494482    5.13295132008203
In        5.85258659475813   14.52107156612135    4.97642041974952
P         7.50682227523722   13.67912242365304    6.61520885577553
P         7.44298909371008   15.15294577941560    3.14832402641378
P        11.00964132216722   16.05402890239461    6.22044755604600
P        10.83544171426222   13.84179950931192    3.46473040648031
In        5.99924113542629   16.34630681110042    1.53758884957914
In        8.32980321025554   19.36956096934977    2.39198148538614
In        9.00885699798088   16.23804676822568    4.80091998954056
In        5.63621425181217   18.24661631881926    5.13827084134658
P         7.39361239032827   17.11304586617294    6.44846102500638
P         6.94442687615376   20.12850289633058    4.22110615004738
P         9.67893392687061   17.38479652153928    2.71701228488146
