64
 energy: -4.511294274754 gnorm: 0.000674523850 xtb: 6.4.1 (afa7bdf)
In        7.65077114320451   10.60295178875052    4.61863932122595
P         8.12927236281446   12.93325989076347    4.12761262144617
P         8.41687562117474    8.33593065769330    4.19902919645990
P         8.14614594342137   16.61203400254101    3.90978233800416
In       10.73381213759085    1.66434808760569    4.65679494139916
In       11.07007073857692    5.91268955514122    4.04587303510791
In        9.06186220624211    3.94793901226858    1.43514798286848
P        10.42314467782378    5.95386527027541    1.65297653356086
P        12.08125795091734    3.67001666517215    4.41041612581630
In        9.39155198006984    8.20342530553957    1.95594987623895
In       11.04971112386448   10.45907117513481    4.10478422032897
In       11.12691766527616   14.94113110911105    3.95613028263409
In        9.30230499849483   12.75784964733750    1.98245991352346
P        10.32062073458368   10.50157805101651    1.74148797761805
P        10.54331250999555   14.87384513648663    1.53926433992747
P        12.11051231276149   12.69384029181671    4.36858859289006
P        12.03295080181804    8.18467783446372    4.32106061421188
In        9.35175727449353   17.03482644887476    1.85103950194324
In       11.01307518579491   19.49593120336714    3.92102987968542
P        10.25742774751585   19.30700622907151    1.59571256216809
P        11.96899418416244   21.72486332504295    4.34041553027528
P        12.00007767268623   17.24711181062541    4.27244275955921
In       14.73205589168832    1.24130386234563    4.28182231574679
In       14.48345784294855    5.89813275539084    4.13942149375338
In       12.86418954218397    3.58234421280240    2.06109947159069
P        13.80271698455323    1.30740458984762    2.04163811242224
P        13.74393339454081    5.88915709622243    1.77394649679677
P        15.41182935489311    3.60383068472529    4.30677721474054
In       12.78463340471047    8.17946807022816    1.96112049457212
In       14.52511755019891   10.39849150323878    4.10709175956807
In       14.50316175575353   14.97692835052141    4.14236219003635
In       12.85146660474721   12.67453141528159    2.00162252547478
P        13.85625228939445   10.41392902231858    1.71959676268097
P        13.80893443681652   14.96598327836188    1.76357927533111
P        15.45803406921997   12.68957367666616    4.40164883245110
P        15.53298209420145    8.14100063606844    4.39936248014908
In       12.83681104258897   17.25570403898218    1.94190519327479
In       14.49890621389150   19.55156382837174    4.18726174271808
In       12.86008599254634   21.83649047868317    2.07520326302868
P        13.76237081988422   19.55905521195541    1.82199421982021
P        15.47126466505302   21.80940576019020    4.28656277998894
P        15.43621800403866   17.26159235252433    4.46386176968332
In       17.93617606931297    5.88529583468295    4.13796883669115
In       16.22701368986130    3.61850585925960    1.96573424976179
P        17.65209535892572    1.66197446580897    1.71827069534303
P        17.25817111970260    5.86278085418114    1.75759936710383
P        19.11608767877975    3.80349664252894    4.58137641347526
In       16.26058539169911    8.11164798983959    2.03072821709209
In       17.92606811668869   10.45459867477095    4.16024448015096
In       17.85749432263059   14.92664615611232    4.26131516642304
In       16.24743989221779   12.71913385901136    2.05102205595777
P        17.14866029800758   10.41952847163298    1.80807957488659
P        17.14934655107744   15.02113524561610    1.88921620071878
P        18.97737463732798   12.70999125981614    4.14379345983601
P        18.91498593149873    8.17047714177734    4.21109834017153
In       16.28726970452017   17.33307801494221    2.13880631931402
In       17.95738025487690   19.36159022071889    4.44449973821674
In       16.47930301506030   21.94496565623831    2.08069827521259
P        17.24820767061521   19.61637409145539    2.10372216820500
P        18.98742176031199   17.13731820308889    4.17331507859283
In       20.05553584427323    8.34156807818996    2.05113867145379
In       19.98842123826883   12.59911692209462    1.92015430253871
P        20.20440400953895   10.43796443336660    0.83855613189173
In       20.13666851769289   17.09980860211802    2.04078571623462
