214
 energy: -15.570304932148 gnorm: 0.000073924511 xtb: 6.4.1 (afa7bdf)
In        4.70874510074733    5.94872714447183   10.91037159885925
P         3.86454116764350    5.88198947769398    8.61273170631214
P         6.07488729815645    4.04473690437447   11.67394960592801
In        6.10461034885305    4.44974743234780   16.83587412978224
P         4.77510501988446    4.29682885588213   14.77582312905397
P         7.71133932670861    2.59714673755511   17.04156609777166
In        4.23427230514797   12.24699140541622    4.72238562319057
In        5.16732138332310   16.54830638418566    4.00388380733743
P         4.85013283886763   16.49360524673704    1.60288408449410
P         5.63725809494719   14.26299028082986    4.89486990006502
P         5.12395905260578   10.00884958922461    5.07845074343643
In        2.93295327063698    7.91614047588667    7.67152143677609
In        4.00015564153530   10.33003271232728   10.43168999697531
In        3.66977591306260   15.02532086911177   10.17150715516617
In        2.23487488519148   12.54572277248109    8.13223711304332
P         3.31649398892473   10.31811951512847    8.04660541269966
P         3.17165763467151   14.81080540298816    7.75288094385611
P         4.52131128531660   12.75590054240855   10.74365923237348
P         5.34896139443203    8.34610078974133   11.14166097740343
In        3.28165396310141    6.18522723015561   14.40591196726269
In        4.83029262324957    8.79311283632806   16.42955504021196
In        4.02250283509633   13.28910414661470   15.98481683978384
In        2.63701012947070   10.62820005285900   13.99649311578760
P         3.96795345436135    8.54112434769781   14.11193006371344
P         3.19150312463902   13.02329370399817   13.65851847399651
P         5.33695587829894   11.23135171302464   16.53722462197287
P         6.37276872790026    6.91844467319613   16.98565177109029
In        5.13736533797037   10.97916373020969   21.88987038407348
In        5.14943631523163   15.49859807107020   21.68708923914903
In        3.90949361219385   13.24771060899100   19.45109992799336
P         5.05090274583306   11.06685875090651   19.44474178864601
P         4.91872549118750   15.50909214112670   19.20298628896890
P         6.15354739450783   13.23075510172403   21.89487637902520
In        5.93845801144651   21.05924332981997    3.81048029072305
In        6.34101359922472   25.39793862221800    4.04619340148166
P         5.74582885078937   21.08634880667123    1.39645885993728
P         7.10617841449891   23.13865954818333    4.55862793522764
P         6.25505414037378   18.71489897461320    4.63818537170605
In        2.70121521212577   17.10885410171815    6.99891133158832
In        4.23910387993360   19.34575468299162    9.62764469463241
In        4.81795312783586   23.87060491479256    9.35106572205705
In        3.25350528632381   21.41895037728395    6.63367007986966
P         4.07761508780929   19.15170821824185    7.15460278606507
P         4.45688109498896   23.51158823008497    6.94985007495887
P         5.27603645442063   21.55477524280571   10.17208017414225
P         4.95354213686997   17.13048365089264   10.52689175280642
In        2.27077207329709   15.32766504912258   13.58417314791922
In        4.05040503220344   17.74301108057847   15.72141922239459
In        4.03791998747686   22.03884323458652   15.36390083735952
In        2.22485005197967   19.79636804317454   12.90462624172532
P         3.24532938952142   17.59705808289728   13.37643257784767
P         3.45175871720631   21.94032726512372   12.94768156116733
P         5.18107928381960   19.94245946459577   16.12261379172102
P         5.07976572631436   15.53353259332628   16.28956846648117
In        3.97858597805979   17.80275901558770   19.31519534608203
In        5.44424546559295   19.96465416775038   21.56370133842685
In        3.89064386077609   22.13331772225549   19.12758771437048
P         5.12245789439746   19.99340220432954   19.08680015120162
P         3.12347117326152   24.34349729205640   18.57848691068419
P         6.64438423940662   22.10542952653480   21.69127029257958
P         6.35971870671650   17.66744236852689   21.81633255626537
In        5.01356908070725   28.13665203218697    9.95318579825802
P         6.05585656491144   25.93924324275723   10.00725198409573
In        2.30431758252649   24.05677240298239   12.55899672350388
P         4.81370478828706   24.33592600500330   15.77016940494855
In        9.64549429808908    7.86579491246124    4.48509339949683
In        8.23554716406536    6.45209669176034   11.06752212310831
In        6.96044581580922    3.82412429341851    9.40688813112401
P         7.70965320921460    6.06329597823729    8.66396522036172
P         9.58425513191060    4.43463016023209   11.53339142730603
In        9.47952722110356    5.26984838193911   16.33797719608245
In        8.26920775495780    2.30657309208891   14.69426889572560
P         8.20269048141653    4.73223475178761   14.28475725649557
P        11.40378795794312    3.75708223477155   16.48860784705816
P         9.25607024496135    6.74159468151098   19.75807107827829
In        6.37809644180420    9.62420689780932    3.02465200863147
In        8.01761462718374   11.62862309560466    5.43413418356396
In        8.20796093710539   16.12251791336624    5.15840850850249
In        7.09131924117994   13.79869503792051    2.93298225104683
P         8.00308620921362   11.47889647224105    2.95625205447091
P         8.29045072956760   15.96400194527845    2.68965004699227
P         9.00961086692546   13.87906067312081    5.84459755251512
P         8.36833885919946    9.23806119048366    5.98914408344713
In        6.29446512178853    8.11101930001257    8.85624379887026
In        7.27357555644742   10.86820927552484   10.60377122469176
In        7.38376049595754   14.67745038143168   10.62685202665459
In        5.45033400736094   12.68348427198648    8.44786811686363
P         6.60932391809667   10.50264674525288    8.24506985656773
P         7.09841554102130   14.51034678191494    8.17922876154042
P         8.77368227375140   12.72807242388370   11.31903259453763
P         8.64700073366474    8.90931210935438   11.28973363301316
In        6.87827932510761    6.81041102220053   14.56948634124724
In        8.15029271165278    9.60136760129034   16.21332563229493
In        7.71086929279836   13.61982677330130   16.20682548508404
In        5.83826518536827   11.24607683124379   14.10609923533255
P         7.21065174203345    9.18795955701212   13.95132624491979
P         7.02156990529864   13.40477540914434   13.84086367929475
P         9.29764365014687   11.75376231816460   16.71166122050719
P         9.74298036121668    7.71836920860369   16.55865943824339
In        8.24671256494810    8.92636986669728   19.72625936812061
In        8.81450893355478   11.24858853222431   22.09135335852077
In        8.77930098073254   15.37892617690049   21.87543564264845
In        7.35345190388324   13.35163272184553   19.73071673349220
P         8.81202881028351   11.33522248548585   19.59544352109086
P         8.69479140789058   15.44165985054870   19.37419485940723
P        10.08647773992226   13.34553200467421   22.41531909342491
P        10.31708111088306    9.32434352458590   22.37710673043376
In        7.76133568006767   18.39751181911125    2.67887787315003
In        8.91376907179194   20.52516523503579    5.11837190749156
In       10.65369768126519   25.00901921578763    5.13409056423775
In        8.78908226105312   22.89068854975081    2.73875914301980
P         9.18168493176454   20.43988838740955    2.66052733945320
P        10.46072260292136   24.69138452567780    2.72068483693385
P        10.07318935141531   22.65293511899590    5.69678688972759
P         9.51692870715231   18.17755167086898    5.60962156161461
In        6.05380545733332   16.75706808239797    8.33442636369154
In        7.50482742966118   19.01965991052036   10.33553351193457
In        7.93227075745440   23.39775649842212   10.21097315287884
In        6.54960651698698   21.23439545920563    8.06386384550577
P         7.27502423091259   18.86676569119060    7.87415513985717
P         7.77646764543794   23.37008508875902    7.73180459079306
P         8.70903120593014   21.13151621079996   10.84237574881406
P         8.51142435704400   16.86429787628193   11.02437608413989
In        5.58189877148494   15.42358925633183   13.85749219263755
In        7.57926800735902   17.79984687029216   15.97035267869646
In        7.59474925282078   22.09486412856093   15.82685583213740
In        5.72594788735210   19.83443248762770   13.69006408287018
P         6.76250592546719   17.58920288554853   13.63142112097382
P         6.82264410744454   22.04607450649272   13.45803679499137
P         8.81598675319794   19.94707179863158   16.29366311529852
P         8.94558221502352   15.76497469090515   16.51879634613827
In        7.43009071100158   17.58909041678621   19.58800347692952
In        8.92793319437970   19.65664670947807   21.69023446992273
In        9.75455111626483   24.21113637126853   21.32947980314593
In        7.74012209751091   21.96095156111220   19.50936007064302
P         8.73418420603091   19.69083922418735   19.19493202465731
P         8.46998255639465   24.32857655384074   19.23267143456502
P        10.07416951539673   21.84921363500715   21.91500830753404
P        10.01839207964148   17.49721639625549   22.22894716711374
P        12.88789540592862   25.20823856459223    6.07052914853450
In        7.43479359633732   25.82050366132948    7.94726210316859
In        9.34094496547493   27.89126789204395   10.24218234094344
P         9.18162728038099   27.54381370337079    7.84829601952984
P         9.17776585005790   25.48594521248725   10.73016131663054
In        5.91478144687594   24.35292232731484   13.58763857013618
In        7.84294288785520   26.47311104624833   15.63727298332126
P         7.14169328322334   26.46514664333587   13.29400100173243
P         8.77480320827669   24.25623751541041   16.23081904072103
In        6.54395226464927   25.76692065497948   19.57753605270083
In       13.14161337069962    6.85980381257140    9.51151866602468
In       10.59823731419463    4.00096319953247    9.36720749599510
P        10.79111380405563    6.40846408495388    8.91502120883691
In       13.15779430980016    7.28646055756284   15.15484797554370
In       12.08482061209881    3.84156763785786   14.16843232289827
P        11.68609294604022    6.17003627923136   13.51239619302036
In       13.22797477640708   10.86034642074217    4.82380812912765
In       13.36450894514043   14.45974136943025    5.27149365557326
In       10.41089404809205   13.52823349027232    3.82528876174927
P        11.01931272972028   11.14378167904182    3.81802954147710
P        11.99738788698082   15.39396955155761    3.42732591220385
P        12.35332511012317   12.50220426927341    6.43444921746582
In        9.73245154506551    8.63542370793705    9.08943530736590
In       12.64366570102339   10.43110946554075    9.78549031476388
In       12.68175526448022   14.31486134892786    9.92968559104305
In        9.86350147422413   12.40068460969970    9.10488527996599
P        10.95970237851134   10.46075451137209    7.95785117137694
P        10.99230271798399   14.38480841150680    8.07912757522024
P        12.17878192158348   12.31758133078091   11.32502422861434
P        12.30140743078776    8.41868081115207   11.20967637789761
In       10.22237565966618    8.07822748760347   14.16308286462098
In       12.75424914953868   10.81040321933503   14.83145916881807
In       12.30673374093008   14.99512108766706   14.81777861817470
In        9.85548057746894   12.01815790258147   14.31160349045901
P        11.05808535371684   10.18092558391319   13.08819969718081
P        10.68258496367584   14.08349551102673   13.11856147869240
P        12.29891229449288   12.88553433800919   16.10403183602790
P        12.60969879934534    9.14271085893713   16.65370179900223
In       11.95658107795449    9.68424518443936   20.63077035999268
In       14.09631375210732   14.88204683597658   18.53792118297968
In       11.35462834582533   13.20593986181886   20.30247966206374
P        11.98094703456613   11.30773166496069   18.80991083624208
P        11.65308880560006   15.10683952628024   18.70475063349629
In       10.98368178864610   17.64884434280078    3.67837388649449
In       13.62833090731009   18.21774540718608    5.51501984057516
In       14.93249265550880   21.66518823706005    6.29158153716231
In       11.83039766717282   21.87872780168079    4.11626394568845
P        12.57077888594871   19.55749502411497    3.71284976733344
P        13.19680124695823   20.14362210736861    7.02424498106552
P        12.43524770801126   16.33417258483057    6.60952388997756
In        9.77035010924632   16.42511481961867    8.93404692631449
In       12.58043578829866   18.08351292208518   10.13773424893639
In       12.93714613456090   22.01558560390940   10.26461929189892
In       10.15194668247956   20.50087522184501    8.91973044612060
P        11.16891862473063   18.34883202112353    8.09783561014269
P        11.59906719746188   22.41961083736934    8.20374197603007
P        11.98529409384841   20.07625814415796   11.49109526265124
P        11.78326337013737   16.09540735805455   11.40884712211040
In        9.41638928605539   16.00945681277716   14.10320389264582
In       12.21445427084208   18.65215662459209   14.68300225974666
In       12.33000474355720   22.73617488106937   14.59149215151750
In        9.35947130217684   20.07227474630294   13.88519044816265
P        10.49280591107591   18.01183865211998   13.00011049584747
P        10.52932108234895   22.12867421553003   13.00272702295467
P        11.98394143449305   20.75399518442912   15.94717079253134
P        11.86710196188098   16.88900004551741   16.37932465647387
In       11.28415380538484   17.14301431596298   20.14083974449034
In       14.11980330725308   18.93591026676020   18.39145385657602
In       11.51534518782581   21.14136233136653   20.02688132108723
P        11.67976958909848   19.08520645098104   18.61250301132785
P        11.84817828574345   23.05947912327693   18.57036763863661
In       10.65394685639114   24.58522610597411    8.96440125831342
P        13.37646227748760   24.22867983303044   11.16161129588544
In        9.33695366077188   24.16793802621656   13.81767949145955
P        10.84483741937168   26.08514756809345   13.79998432797602
