276
 energy: -20.521672927738 gnorm: 0.000228132328 xtb: 6.4.1 (afa7bdf)
In        6.68591167383063    3.77856365250821   10.38657905449266
In        5.45481150136351   10.35131155985965    4.23751544817538
In        5.13347681727343   14.78358595938171    4.27920692399108
P         4.61044484198884   15.03776107723990    1.90208583330356
P         6.28620757510875   12.61962244790906    4.74431236009663
P         6.48993648997341    8.20652445288571    4.57260177759752
In        3.48069601445790    5.95193245948739    7.96868469149845
In        5.98976956741016    8.11415807584434   10.02706629427801
In        5.20342445109391   12.39611440454674    9.98739917572934
In        3.27597433609105   10.26120053194075    7.71073390216955
P         4.50380289643113    8.15668499279516    8.04879067774251
P         4.32899518515495   12.49277928232928    7.66507899040955
P         6.76657878682792   10.46431853844742   10.36805524481530
P         7.44431530531565    6.08555826601633   10.10860161565487
In        2.76784856458340    7.97859589114589   12.25487931448661
In        4.06096168475608    9.91425798377931   15.28298920463870
In        3.87050774737648   14.42991134892403   15.53287056625607
In        2.28671460259846   12.46270546968013   12.67604739956973
P         3.31344954574095   10.24431648373911   12.94545488182549
P         3.24629975701305   14.68815808601456   13.14630474530216
P         4.87469427857142   12.17476144819396   15.92434435115931
P         5.33825727736427    7.83386740831144   15.50958905023358
In        3.99394854383048   11.51122479881163   21.20454555674912
In        4.65473825811135   16.02974420356028   21.47605193414509
In        3.08814348843495   14.03337115500120   18.96174293593034
P         4.08931694496800   11.79189328564873   18.77050752748460
P         3.85943867656593   16.38114781007538   19.14919530320895
P         5.21366289123948   13.61282183410600   21.58762005927522
In        3.75772139042310   17.25235659280737    1.38938339724999
In        4.72667750376512   19.38586139296861    4.43030435285496
In        4.72326564674133   24.01611897665442    4.71377296108878
In        3.49703482857488   21.81573405906759    1.72198094836055
P         4.40401101681408   19.54613098863216    1.98402549397945
P         4.40987119997867   24.03202816281408    2.26249662061892
P         5.51251178172579   21.67385884660694    5.05908344887708
P         5.73618721451851   17.14093266304897    4.86047342195513
In        3.24438884669446   14.71542480795221    7.58631188157708
In        4.26346985137993   17.03275892930738    9.97655264647310
In        4.01300391992947   21.60100354176799   10.25065114584803
In        2.85862715221649   19.33735575874107    7.63628355001576
P         3.93080062411318   17.09846717015348    7.51620907917932
P         3.65946914700479   21.68262174106874    7.79411309727346
P         4.96945714271530   19.33224099337339   10.65236134975438
P         5.37559235804224   14.84628261621857   10.42767672710034
In        2.23116027561307   16.94146591086021   13.23330252671814
In        4.10307080223935   18.88772655120231   15.96044585841191
In        4.50277101268334   23.29515884432525   16.32463059192209
In        2.41132318631383   21.39897722578887   13.73136472399857
P         3.34922066841007   19.11446919338561   13.60536650104134
P         3.64248279050461   23.52575979852353   14.00659283027690
P         5.33229588736870   20.96281428963142   16.59822865233045
P         4.97031309872093   16.56134922644324   16.21845297152915
In        3.11663518372825   18.69686979269515   19.60999883703848
In        5.24879142747117   20.59497695761720   21.93427836411588
In        6.02178141211966   24.95220042222862   22.27518970440047
In        3.43971376396191   23.18446924270317   19.95718242234310
P         4.28903164734078   20.87947064260928   19.65915861342780
P         4.87489417950926   25.19268965758575   20.08244511044051
P         6.71892535465060   22.56131252918198   22.35643088207539
P         5.81863969540950   18.17623494661873   21.96655977046591
In        3.82023131045800   26.35844766144421    1.75696246099740
In        4.97846612612832   28.52598704108378    5.02924285697994
P         4.55078552048679   28.50453941081063    2.61919068008854
P         5.86915559331417   30.67990935270151    5.83784111807742
P         5.71853189629115   26.18394257392795    5.45832290275152
In        2.75824728049649   23.99079464801812    7.91579847001133
In        4.22480639187178   26.11855375112891   10.62366912435331
In        4.52061248543213   30.58352548430976   11.09035516203188
In        2.73462666984955   28.48386331632308    8.17440965825770
P         3.76112945170232   26.23872427129483    8.18594904557645
P         3.81125015775558   30.59516439056823    8.73733844902183
P         5.29400603135208   28.23169072706492   11.43614782792718
P         5.00257661775197   23.77124571650205   10.99447288347958
In        2.71973586783079   25.81176486196886   14.15872356653120
In        4.94939244260461   27.65306977831597   16.71905891582544
In        5.53927114139709   32.16907616905507   17.22093600422820
In        3.06633026599100   30.14520547212717   14.69305054950844
P         4.03091444358822   27.88885451831687   14.42011461782477
P         4.27776305273958   32.21607952145340   15.11175564383494
P         6.14133005585601   29.75479537844372   17.35689008777614
P         5.79108601041290   25.31914252466506   17.00963698543585
In        3.94443312388642   27.45992569945169   20.37773929798175
In        6.60262599327059   29.39514909652663   22.53591434609001
P         5.25728343891725   29.51049397414220   20.48217480464777
P         7.91715042420094   31.43229328171157   22.94800460925055
P         7.35176465371053   27.02430549578250   22.65598882036677
P         5.58925408177321   32.63395956555828   11.95988296355550
P         6.98852284174170   34.12142822538124   17.59621467219970
In       10.40772549472786    4.96117762836855    8.91336421735785
P         9.04843745886330    4.74293080703443    6.92222431063880
In        8.69110949485616    5.81508328423152   15.39711726410234
P         8.14286949245459    6.01975175961094   13.02689135694216
In        9.29872030577041   10.60646142830904    4.78397705638780
In        8.35867101359721   15.08110278345557    4.95857578412260
In        7.58973411895937   12.74400172040688    2.62704453577901
P         9.00105020081844   10.74314421721548    2.34934065856489
P         8.24729812142179   15.13223193338306    2.48650803014226
P         9.67007151890684   13.00801474110370    5.34086997519571
P        10.76374765500570    8.69917183416014    5.19752591581088
In        7.19385689369719    6.18942602091691    7.62604511869130
In        9.37720449137356    8.66574686706799    9.62695977315693
In        8.63538775995610   12.88399794547770   10.02359522837806
In        6.90490396658397   10.52614858999234    7.88074602569986
P         8.18676458120924    8.45013621645655    7.47273828045614
P         7.75776820612213   12.85143279080098    7.71420312446378
P        10.18358014229600   10.93282195158695   10.30234058165295
P        11.18159506689066    6.99310617552188   10.04950363293614
In        6.65722085148843    7.95149404576903   13.45329411408376
In        7.55670937171119   10.35914165730429   15.67038040906455
In        7.39397867466230   14.38148901339591   15.79381732766669
In        5.70969911691633   12.36319301743942   13.58750851570093
P         7.16299796545011   10.37815901509995   13.22356518394180
P         6.85317500983805   14.54801013369938   13.38021071628913
P         8.84109303733905   12.40261175821364   16.26630463378435
P         8.78236655031476    8.21605583112102   15.91436184160497
In        6.81538486138191    9.13426104162471   19.21605902699032
In        8.37187840744468   11.53800826090617   21.73461655629816
In        8.16444476407412   15.97826585299778   21.49606843842083
In        6.44913701158349   13.69705233518576   19.45247443199436
P         7.53838187259978   11.45853851661300   19.41883504367831
P         7.29931040316738   16.01257262263785   19.16344108039743
P         9.29793992783858   13.80085523600794   21.83577833234893
In        7.00740150566268   17.27171098631231    2.73190329154734
In        7.96674329712071   19.50738208823633    5.17404243940355
In        8.01082932452130   23.75046457432650    5.41276172821608
In        6.78552057606828   21.75151874518583    2.92726990403063
P         7.94818196267359   19.56908355886134    2.70010478858921
P         7.91236782072159   23.96499139927467    2.94951424484666
P         9.15928032037160   21.58547668725041    5.81149346706726
P         9.14361860189535   17.36006694448944    5.54500543071267
In        6.51764635550835   14.94470697273734    8.23867906024123
In        7.49268894557247   17.32598183731136   10.42737429609040
In        7.46677412938690   21.65610864720622   10.70298235673953
In        6.03810716188197   19.54135741178330    8.42917278485026
P         7.09588701517513   17.34264941297916    7.97670616074176
P         7.12809630259704   21.75843832635821    8.25587637821765
P         8.56921186992564   19.46354826752168   11.06016644112844
P         8.81862893450684   15.25567822851805   10.71097697025903
In        5.73559351424760   16.69918877609744   13.86166233344250
In        7.51196454583496   18.61133411539198   15.96160354617308
In        8.09474186454305   22.92505590677709   16.13698339504413
In        5.95524344736340   21.10882973927473   14.20342027908945
P         6.85138121551517   18.88909629855272   13.58890632827764
P         7.17477360670947   23.23911085674584   13.86159219957598
P         8.93642654962217   20.59806507472355   16.36821566465592
P         8.70477997461597   16.44692692823642   16.19671345844383
In        6.39241526039932   18.28457545855281   19.56422015364389
In        8.73620596330172   20.05107629557225   21.47155529072840
In        9.41315829702775   24.51647994951484   21.69748926263160
In        7.01857325319842   22.66777818446862   19.90376975249485
P         7.68013767230007   20.37521018140134   19.24727207772859
P         8.14669657852705   24.85111608661769   19.58443883098031
P        10.09316389090971   22.12064150992691   21.73811687595981
P         9.82222715630997   17.82302677274083   21.50780031834423
In        6.99650171458895   26.24616374339897    3.32842471109086
In        8.23012331219348   28.37244742884328    5.79675807504466
In        9.13493422429698   32.92327613610834    6.06841689208966
In        7.15022511001585   30.83601354160095    3.75832105617376
P         7.94202007028561   28.54080924203920    3.34682409394855
P         9.48104970290359   30.50818235890257    6.08738479531441
P         8.92565124787387   25.98889887690405    6.00229511893012
In        5.97564021264861   23.90570616963121    8.71595056697598
In        7.49309636128089   25.95437716765826   10.97221348448598
In        7.96007093254815   30.44098157019762   11.41745501623653
In        6.25248913670726   28.49085018552366    9.15851227397590
P         6.95398020009969   26.18107502889885    8.55507346071926
P         7.28956713128531   30.75005426006691    9.04834349467684
P         8.65149310221172   28.05368305045950   11.62024295509424
P         8.65101032496046   23.76844742788871   11.21454579334169
In        6.32477483192752   25.44832965803423   14.59059580488975
In        8.32398659741843   27.45451656873321   16.54524034009834
In        8.97321780967311   31.58168539045911   16.84904119800128
In        6.63768003169603   29.98038978931631   14.93776826661130
P         7.32586801540939   27.69396896634368   14.28817529594323
P         7.75519112228168   32.18182998427285   14.77120346407895
P         9.95582728419260   29.31253185508678   16.63864039613017
P         9.13381793198402   25.10470266020331   16.72010558078245
In        7.60208525312409   27.19238146322274   20.20256013741886
In       10.02076583259963   29.11031844979257   21.87040613382446
In        8.28562996325434   31.77562125646549   20.55103708543411
P         8.62060045065924   29.42237273532774   19.84246602467527
P        10.21881990891232   33.20832614334409   20.20712707006657
P        12.13010415614691   30.11050958007791   21.11790093322401
P        10.60238730468576   26.68892729614324   21.93322634707781
In        6.48407244292904   32.98985542334394    9.71418313919816
P         9.11918130141795   32.52770108624911   12.04196786166062
In        7.63346432862793   34.57889349066160   15.29962690703867
P        10.82769441803832   33.18906125300279   17.06975173530077
P        11.78290237908138    7.12216274331445   13.73316440998418
In       14.31640617701233   11.27993246275348    4.22977483959218
In       13.74558212657201   14.84130905246703    4.67900251488248
In       10.99706853729215   13.21851484428068    3.25869254307164
P        12.13836534810496   11.04573791409145    3.17389173097284
P        12.05439486906633   15.43989482051664    2.97171621363038
P        13.58749360449666   12.77147857450704    6.02941778927554
In       12.76987131735014    8.05566932102759    8.51077608241809
In       13.48414904552421   11.17715686120355   10.06153295111189
In       12.85447810145619   14.81119049428371    9.70458476734756
In       10.99398571412871   11.65533341814374    8.06701606914628
P        13.09751967176057   10.36265400472094    7.71731013533002
P        11.41998760537630   14.10951280442539    7.78555403677331
P        12.21598692264845   12.98763115711563   11.25826246829556
P        12.91567404518895    9.28605808769623   11.53099545515006
In       10.06362201121791    8.84725887176955   13.88619447902734
In       12.07647921270643   11.11076123136156   15.40531374374124
In       12.47052549261513   15.11434120816848   14.69772046288488
In        9.69706175729780   12.94384529965552   13.99441700965811
P        11.06133465560639   11.02523285357988   13.11469566941988
P        10.78461784801024   14.92935283903633   12.85934474018950
P        11.82791211639487   13.39362071102005   16.35185347227785
P        11.76508570067429    9.26192451466330   16.96419837269297
In       12.18766168369665   11.20816683090328   20.42443235923200
In       12.94829576720534   15.37581841315399   19.43491477696788
In        9.78120637035237   13.91710733003805   19.41839934253440
P        10.68072076139293   11.74553760919432   18.61057996031370
P        10.91989933080957   15.68112726711710   18.02907710452847
In       10.51565967866858   17.32324668956310    3.47434346626959
In       13.21276334523158   18.49018701416755    4.98109832471135
In       13.12995288088801   22.61287509564935    5.27945331789572
In       10.44529488638146   21.47578083432392    3.69887832818667
P        11.77405745981649   19.44211099793997    3.19953996352813
P        11.61688011752749   23.66042897599468    3.60801574884407
P        12.65579020132486   20.45343382423303    6.36610492786447
P        12.49941311380290   16.40847225552432    6.13264908918926
In        9.98321282840365   15.96898493895804    8.63659182259205
In       12.82558997964788   18.56049331424381    9.51187788175932
In       12.20458857158747   22.78657313558601   10.17501351313986
In        9.84534465322439   19.96999443923358    8.99055118197781
P        11.04520286212827   18.11389745733264    7.81059270023047
P        10.75303819441933   22.19311121913506    8.23834856863153
P        12.61643520037232   20.51792490816662   10.99471176780694
P        12.03857657666357   16.76525436458384   11.01604811840064
In        9.62223873273334   16.88300203424103   13.93366812893528
In       12.93038636137046   18.65067760944756   14.15970307522239
In       11.90069460324250   22.94339938136766   15.58083459130203
In        9.83190789160616   20.71030038413280   14.06713658604885
P        10.83950069751340   18.78979380980858   12.82058901879586
P        10.42703314197607   23.09014741526135   13.59149351627186
P        13.15108085739881   20.88663470480785   15.13315449701357
P        12.10868621883335   17.22860960413813   15.97669004165924
In       10.13873285641018   17.83707480293213   19.06651004376550
In       13.06344299719961   19.55839101302610   19.68229892296159
In       12.69824535287544   24.05856666589041   21.00543634710873
In       10.46975647678145   22.03361838804751   19.29683119804673
P        11.15834855725885   19.92540600244919   18.14776790711358
P        11.20603258506990   24.40698753581594   19.04568575703619
P        13.43724995270240   21.72330707854413   20.77515528108414
P        13.00440371968958   17.38146912527788   20.80858289518331
In       10.38225430888813   25.78653288579459    3.99043614413068
In       13.34845635236807   26.30896925769473    5.71381443098815
In       11.10338801735737   29.96716330565727    4.32148113084588
P        11.96721495233146   27.67991196793450    4.21898174811163
P        12.17422742312916   24.39079680825015    6.71528287632510
In        9.57965560731661   24.27094748851398    8.97552339946665
In       12.60865924718409   26.56045185462093    9.99700717602247
In       12.81652818829185   30.24443942428063    9.06794361329166
In        9.65893355154608   28.25371536182714    9.37055701180649
P        10.82839288213624   26.34605158531325    8.27629192073906
P        10.37581594222992   30.60784062951008    9.05090397709884
P        12.66438850438858   28.80341334530813   11.02315510433235
P        11.69126848197915   24.81877760875943   11.49994205138164
In        9.75578484751445   25.37913720051878   14.33516032131874
In       13.09004021150050   26.33520353482518   14.33831612056913
In       14.03313314946100   30.52310739365704   14.06108361537541
In       10.67429098265510   29.27963859735605   14.28032902521305
P        11.07413689524597   27.11628135384520   13.09002986888902
P        11.82434950556802   31.25623038902683   13.28157460345012
P        14.12313598766057   28.39383994315539   15.20578500933085
P        12.24449015790410   25.26445057165080   16.40846420200958
In       10.93112916538288   26.85354516723589   19.48679881891687
In       14.47013041709075   26.73194840474606   18.69739401777252
In       12.69473770189194   30.06132370434045   18.77070995732664
P        12.45597321668068   27.82382134545212   17.73576415525955
P        13.93492416684550   26.18628042710602   20.99835066934628
In       10.25526866905283   32.90747114930922    9.92827856612610
In       11.42804316402505   33.20555295066801   14.72367906472958
