34
 energy: -2.099776561828 gnorm: 0.002853446224 xtb: 6.4.1 (afa7bdf)
In        4.77637859515147    6.76221202471386    5.24345007723049
In        4.01823666538478    2.89209993777271   10.45209444979716
In        3.35413736261415    6.38339649186199    9.82505229827036
In        0.49811678376181    4.10229744610961    9.05799270663449
P         2.22666450032581    2.41117362051814    8.86502910073689
P         1.70053990089240    5.97794335895125    8.02416632356732
P         2.76270459878999    4.70788818158045   11.56047870644392
P         4.16205935759725    1.08065316896752   12.06679494017455
In        0.16703660516180    1.34281515615159   12.83745351756132
In        3.41614838858543    3.24659376535296   15.44947449666997
In        2.99724740817346    6.73084401410506   14.70207832161645
In        0.15146704186761    4.85675278260339   14.40659462520001
P         1.68275582716098    3.03496401113621   13.71763040331861
P         1.18446163834643    6.61818615141491   12.97581916125861
P         2.60923431454057    5.22553723785663   16.62598329775193
P         1.43641461007840    7.54391699248797   18.12740348885697
P         3.34665481395021    8.23611861174716    6.46063176151400
In        0.25996195752007    7.94625029051103    8.31886833409575
In        3.52298238002320    9.98079629660828    9.58050965421335
In        2.57062684954924   14.11440123289222   10.73686603436616
In        0.17215116269594   11.57632053947442    9.32990822510522
P         1.57280160571612   10.01691504115121    8.04825929731806
P         0.24151409410615   13.46336209504370   10.84583400675666
P         4.00319909097604   12.17150014538526   10.58951349226044
P         2.46729139748192    8.33509963890651   11.09921885773099
In       -0.09081852882388    8.58411033323103   13.78673395910131
In        3.79047635812870   10.13275296013450   13.71686791817717
In        4.58300608898586   12.66587602392414   16.09102211154319
In        0.88943204888581   12.07497390110811   14.58286285666908
P         1.44291458841222   10.33077047783537   12.92574578570320
P         2.31590426202918   11.92083734854698   16.54867252371164
P         4.43385721146080   12.49933918936205   13.67315847227460
P         2.81621764906961    9.00211452604373   15.66205450045908
In        0.46653087135983    9.38970700651265   19.27513629392372
