18
 energy: -1.121737081814 gnorm: 0.000731780318 xtb: 6.4.1 (afa7bdf)
P        13.57471194946560    5.87129966452650    4.75010909182931
In       12.03758210195507    2.41214455860856    3.13914658222470
In       14.85370108183245    2.21845346558945    0.54927212257146
In       14.79854071722506   -0.22461391309537    3.32176234234527
In       14.98873297464141    4.55706366352799    3.27583600646399
P        14.39846989320499    2.17695086846162    3.72140280198123
P        14.30173035442212    4.57950412460658    0.92641249355342
P        16.85099834919761    2.17691864009390    2.01223673271066
P        14.68691357974661   -0.23301861885138    0.87484983415584
In       16.87800232685174   -0.85988916566205   -0.02505860846558
In       18.69613759472858    4.53061212512583    3.36036851690014
In       18.83921106871519   -0.25735936781678    3.37590963297438
In       18.89317366978026    2.20593157060263    0.60965534949247
P        19.04722939194762   -0.24675179020168    0.93632698069757
P        19.40267330142165    4.57094440755749    1.01715031428992
P        20.13550602366850    5.80443501964845    4.84761350399973
P        19.25416597273864    2.13944264667742    3.78918282303616
In       21.62977873204522    2.35095466569370    3.25584347924108
