46
 energy: -3.160348524969 gnorm: 0.000669360280 xtb: 6.4.1 (afa7bdf)
P         8.22705290846461    8.69264738524349    4.03421910852351
In       10.91100416658144    1.73210954903200    4.22344575143339
In       10.91826131806306    6.26727428153474    4.04691176431126
In        9.25626343727838    4.17231754804176    1.27986383531127
P         9.93508502436502    1.95312181481274    1.98579553305758
P        10.33295791111880    6.35381879002189    1.63857077953569
P        11.87646707740956    4.01086563197984    4.49535356271654
P        11.87551167329284   -0.51852999323696    4.48415191251764
In        9.49525480126796    8.68148472691286    1.96759757669584
In       11.16085373530763   10.85684271541858    4.13449097024076
In       10.73823062298382   14.96512446875777    4.57709825968529
In        8.19524789160588   12.02070049784173    1.76651112053436
P        10.41817197003511   11.00780473265354    1.77381513923067
P        12.25206055666345   13.06216349734954    4.51681836750352
P        11.95138990205011    8.50931657647526    4.34272303352592
In       12.92429358096608   -0.78841667859644    2.30911316728365
In       14.25443587509304    1.73528250239655    4.51199293091210
In       14.39367896777854    6.19408164096104    4.17938215443344
In       12.66141743415379    3.89364030817876    2.14504372074293
P        13.55905630527360    1.57745597232213    2.13719301160965
P        13.66028231687413    6.15324281163056    1.81072211046608
P        15.39921789099974    3.93876926288582    4.43889376194939
P        15.76122780589133   -0.20105667917951    4.64458845127495
In       12.76228725164943    8.46951576148663    2.00433067631749
In       14.52628119866258   10.73570671464040    4.11155737895866
In       14.93664876208739   15.38428950376004    4.31197960540067
In       12.95122539042545   13.13745971812432    2.13463103970833
P        13.65831217546429   10.77606755119926    1.78986592206348
P        13.96322364430759   15.38164533823620    2.08971644042867
P        15.53668656030929   12.99773853052529    4.28581885381201
P        15.45638528388866    8.43907483555450    4.35540065519342
In       16.79388322975578   -0.05314760716242    2.46475295900908
In       19.40166585879636    2.92846783289562    2.28206113554248
In       17.80358235066003    6.15222926520464    4.17644582290511
In       16.01844318129535    3.85348270009585    2.04447934461934
P        17.40873504328187    1.96397941078272    1.23080548368912
P        17.07074593074829    6.08136982259163    1.81397355243516
P        18.74549170295984    3.89229201348074    4.40276993862020
In       16.17164951755655    8.38340068095128    1.98365011587793
In       17.93840816795151   10.63510969696332    4.03495922263649
In       16.28058473448047   12.96833167541787    1.91962255491712
P        17.12556515191319   10.65023562846327    1.69683722225207
P        17.76313045987443   14.87337842256068    1.62200020198418
P        19.28867946809291   12.63642652708864    4.32999105893195
P        18.93666749171221    8.35899623660802    4.02219103717709
In       20.07704677060127    8.25912837709497    1.88632375401941
