70
 energy: -4.829097742426 gnorm: 0.000385849988 xtb: 6.4.1 (afa7bdf)
P         6.78843684898511    6.77733754714953    5.44637098592257
In        3.82471096875751    9.70427357130009    1.54891952100239
In        4.71349368230715    7.50989303753376    4.37138250097527
P         2.32380304288284    9.68190905038541    3.46610989172473
P         5.74783359416616    9.80062192189971    6.53402789408467
P         5.88006697080903    9.03509053794207    2.76035453185817
In        3.04358173640769   13.54364960498008    3.01981880733417
In        3.75532192662717   10.51101185800401    5.28142450642270
P         4.64788900393409   14.15511341217119    6.78119231378186
P         4.85665803978556   11.99492957382423    3.59665500698441
In        9.70318441649973    3.81328262126686    1.54694466282526
In        7.51507924405310    4.69823786618081    4.37556719173658
P         9.04318628268586    5.86645796317885    2.76725617183869
P         9.80865233980808    5.71231747394874    6.54465006835557
P         9.68072609846750    2.30671414881191    3.45957541914122
In        7.02962926149478    7.01734952716493    1.86765038928251
In        9.54323407851523    9.53387522378213    2.10313725063582
In       10.07830215455302    7.21563157252637    4.59677108266760
In        7.24067594675260   10.07420663023255    4.57735170758827
P         9.33787843111792    9.32550132646149    5.63355090981832
P         8.43774013960695   11.59940441273261    2.95392577136322
P        11.89875008643059   11.90307585481449    5.80782107454321
P        11.59615029000906    8.41809148660383    2.96943830700762
In        6.39551464306067   12.11620945719400    1.64733173398985
In        8.91682705881042   14.63752673947248    1.79126471733042
In        9.81829084618954   12.66022406350642    4.72978163796540
In        6.30480975652858   13.00946651652310    5.39804345704943
P         8.32009022104016   12.35766696372520    6.68431927042464
P         7.33357540513371   14.53970478973346    3.69613709438728
P        10.86519000167632   14.87109717647549    6.82074515348983
P        10.99907728615232   14.10681435478450    3.02058053835473
In        5.94568467294786   16.57511677368425    3.64296461072271
In        8.86193380343834   15.50223010925025    5.49320825913705
P         7.49614846236523   16.64243713312748    7.17246065395040
P         9.94648330969071   17.14459092927015    3.96476324389323
In       13.52871920084731    3.01875587753681    2.98170485201187
In       10.51988997324142    3.73102786108800    5.27601474293847
P        11.99843235762980    4.83770675653185    3.59016655341948
P        14.19444930840451    4.58444269564156    6.73550412165004
In       12.11379576559741    6.38573799868172    1.64700024047272
In       14.60433919087969    8.93161151678815    1.79342021014854
In       13.03699886699786    6.26674191619718    5.39251495992061
In       12.59457727343222    9.75834781225521    4.81498233284924
P        12.36994918536251    8.22974865507216    6.74593275860096
P        13.96663308594866   10.94590804763149    3.07973018053488
P        14.87969033556477   10.84220932472577    6.81022325650854
P        14.53504982293909    7.32577785747961    3.67976805554185
In       12.22151754632614   12.25624246967849    1.92408982812363
In       14.94000036029247   15.02109566190138    1.95313304016681
In       15.15974403433071   12.29601810552860    4.81957651424703
In       12.32874204562259   15.18518420533046    4.84441110048768
P        14.48035599713953   14.45668908783209    5.80131608100242
P        13.43143765468528   16.59812091879800    3.09041353459117
P        16.85659143847048   16.85474212906587    5.59674221671644
P        16.49466321180532   13.45705345044177    3.04246917090983
In       11.39394246332601   17.47021599610668    2.00780617969955
In       14.75933604371963   17.86527335357686    4.79548495180399
In       11.25884857766650   18.13327099533426    5.80744962271552
P        13.38212118046133   17.48595379371629    6.82650370977577
P        15.70786427551334   19.01869944613687    2.81759088093870
In       16.56817524869730    5.93648620750754    3.60207999764226
In       15.54005996356908    8.89444691152854    5.41490633721068
P        16.61661680928682    7.50255147915174    7.11681534878292
P        17.26113171876661    9.96399190784655    3.95608962597337
In       17.39729756271140   11.41935581264828    1.98769185641921
In       18.16354571642816   11.28341544146362    5.82978011174055
In       17.80740847420116   14.74966262047752    4.74177338505800
P        17.45453172314974   13.40678332627940    6.80225344271928
P        18.95490414279099   15.70902947458696    2.76560101799232
In       17.60084189255817   17.63745215565485    2.20146344290377
