188
 energy: -13.585468218316 gnorm: 0.000141184080 xtb: 6.4.1 (afa7bdf)
P        17.28475100812447   11.84928548293619    2.83857120253831
In       11.39182070087387    9.02932979167811    6.76446951315926
P        13.22946065868396   10.58603357457308    7.05466306264690
P        12.57295745360670    7.28184802157501    5.53735637544672
In       11.53421417585751    9.08095272953586   11.51467936346662
P        13.39285210738277   10.58897001942486   11.09009259635643
P        12.69105535316904    7.34544040838945   10.25714748870420
In       15.59100206774096    3.58225094015471    2.92832923096589
P        14.06868070815873    5.20534188508250    4.00770837472909
P        17.50817351948299    4.43216044452385    4.24846740334418
P        15.74611162850762    1.48505182550660    4.21047637538524
In       16.37803175250459    4.23947296014302    7.85163111405097
In       14.17328375250870    1.17122280631737    7.64202172804691
In       12.63221940621300    4.39757369030662    7.56663609949835
P        13.99713140267736    3.02899710477522    6.03255356737495
P        14.46688511841828    5.52446576918542    8.79928812661981
P        18.36017931831968    5.22593283525042    9.02237685689762
P        16.27823111609550    1.90741339433598    8.71390729476358
In       15.95552720088635    4.54593373922302   13.54936550557868
In       14.49943793231255    1.27151287894818   12.18870295142420
In       12.90380183798838    4.39622814340402   12.33594243015930
P        14.41393840675957    3.26166719269300   10.74211874185058
P        13.98388603479373    6.05728271165462   13.84917375167939
P        18.23541209493224    5.49889557501819   13.76706104982882
P        16.30666270981908    2.07055644266381   13.68879395685300
In       15.35075379441203    3.98474125666772   17.84539365409477
In       12.88039549054763    1.42138547095501   16.08159977200501
P        13.47035143746847    5.14302335376190   16.78126749160942
P        17.41795053296236    5.25813943569494   18.30724341078585
P        15.21649144191188    1.86029428276056   16.57070222333576
In       14.00254198173222    6.95086727409441    2.28647388105883
In       20.06207492751043    9.78475313268995    2.94844175273728
In       17.43714208178486    6.78624225128172    3.46297447753164
In       16.91582569429542    9.70625312316086    1.75229767859656
P        15.57739114581189    8.45060361252428    3.42438648859351
P        19.01042101323929    8.62835813566647    1.05146258140985
P        21.95095781027244   11.32398154613981    3.34550186952371
P        19.35179139000996    7.97696612196741    4.53505370563412
In       14.47849130616694    7.37977340445481    7.10569907531349
In       19.29336105253413   10.32887889077176    7.35090511770238
In       17.76993649626210    7.35419407676252    7.88753678757460
In       15.67284466917718   10.73289007705694    7.15429181598500
P        15.85269752183860    8.75817167320817    8.65925766711684
P        17.44497529206226    9.64433656556468    5.81871900364571
P        21.23502278868537    9.37500282945780    6.09863643252383
P        19.58709693261649    8.57128366669662    9.11437466860979
In       14.64095182564763    7.27223604631451   11.76499910401195
In       19.40902949246957   10.61463187025422   12.14688431963940
In       18.16572608865219    7.46130770614237   12.24121142262661
In       15.69925725835068   10.97766740628155   11.81224023708224
P        16.18970515229524    8.82557077415076   12.96088358539599
P        17.60200040154198   10.05328627198674   10.51255643197386
P        21.37037899253117    9.96557451725648   10.74386259720441
P        19.86300193315455    8.64845039709098   13.65785734136944
In       13.69884733366451    7.43616990812978   17.58619016068232
In       19.57627027658858   10.43630362262503   16.95477254144311
In       17.09708127791198    7.12748414533823   16.70134395439362
In       15.88373554459255   10.29402159781161   16.62651699160370
P        15.04908338458264    8.15371368923660   15.63062565790488
P        17.86922804342692    9.79706784252087   15.24467569087727
P        21.55251869532780    9.78167949074227   15.58107085751248
P        18.26920782478227    8.72805544421485   18.21451872085759
In       17.32400707038912    0.28962351112846    2.80253184427063
In       23.56906728328142    3.22241558329381    3.77411210573321
In       21.40657689236250    0.53589355304220    2.27895483123964
In       19.30046275216378    3.71215801034694    2.69876324776221
P        19.19846807506668    1.43620339484048    1.73130585636776
P        21.29757717071751    4.15834828618545    4.11305104303491
P        25.78208334845559    4.34657764691412    4.03624090121477
P        23.73060497960116    0.89387046912188    2.95682246459981
In       18.00258133502377    0.95689301130327    7.22296757985827
In       23.57851265516060    4.10378198518163    7.27492867945430
In       21.60758401580019    1.03252591832983    6.64795171227962
In       19.84715056189059    4.44651345003006    7.17769885143292
P        19.61593636821328    2.30631446225767    5.91789570403108
P        21.72496891725670    4.72210752966756    8.78723043929138
P        25.51807576622514    5.34918339502160    8.18036496377406
P        23.75418455411771    1.66099760459716    7.66350663208942
In       17.69949414887978    2.07623629581367   11.62592275018811
In       23.36506342694249    4.36387715268426   11.83626758607812
In       21.12675572712316    1.16922331047797   11.03239773038964
In       20.01111071984799    4.46594644577302   12.36850790150476
P        19.62980643741438    3.02460605654125   10.34601497465590
P        21.97541082966439    5.29360811806071   13.70437761377373
P        25.34838189290621    5.44671658006838   12.94870317242754
P        23.17750937688439    1.91047331683257   12.16616816083495
In       17.56434895467005    1.42135487554909   17.22665583235516
In       22.84080325849498    5.01345334580763   16.74728326608719
In       20.13844427532540    1.89142079525031   14.93140674744209
In       19.52676633557712    4.53967486745656   17.20237202523999
P        18.13216191123995    3.22014389489672   15.59639693116575
P        20.84439532572997    6.43225567078430   16.20059369321867
P        24.53936348886575    6.52739441832363   15.66640623606378
P        22.29837399910055    2.89465316816641   15.55291104150330
In       21.17048505363333    6.57518448275017    3.54060830268247
In       26.95136034762435    8.90081219924226    2.30499433695396
In       24.73702209622555    6.43902960777227    3.17105683126875
In       23.59031482441510    9.58247610229614    2.78118319042378
P        23.11631861831762    7.82126298706119    4.47740205827230
P        24.93527503280696    8.78391764958591    0.88545525902027
P        26.94889080328445   11.09710627249958    3.42964341898742
P        26.45581393073122    7.74214911756795    4.45566144252794
In       21.53063244496705    7.17344675342616    8.38050507115571
In       26.55431232406706   10.59021139055065    7.50357190844604
In       25.01727852582473    7.68819424393472    7.51642026570521
In       22.90528917657661   10.61062767669253    7.46631847495028
P        23.35576050874339    8.74739696395855    9.02959643096465
P        24.74020837060583   10.84229626881210    5.85093389246119
P        28.32395551854082    9.40755856048505    6.20819947569763
P        26.70379447981969    8.66928183135348    9.08846200972824
In       21.72015076839909    7.45174891739110   12.47677174527652
In       27.20958533436107   10.44397707946768   12.65837999240321
In       25.16512200291032    7.81869729394953   12.17025107512450
In       23.02516525914859   10.90095601815139   12.32227843265496
P        23.43489562909261    8.84037758288751   13.66260177130776
P        25.25359866519992   11.10864151511197   11.32373082041228
P        28.76877394929542    9.57304832220616   10.92743064364251
P        26.85936249207647    8.34770852152051   13.97604318271516
In       20.46532471433620    7.57466555724449   18.36687017020497
In       26.98782178973955   10.08611383165679   17.37854491875006
In       24.42321550279223    7.56987006457906   17.94578444273484
In       23.27104553556460   10.65478167940922   17.15208751530591
P        22.50715641685605    8.93153268357245   18.75688443310221
P        25.13666655686681    9.74687364241058   15.77247186561004
P        28.79259128265225    9.00771395445677   16.05274436851666
P        26.49194641686500    8.36396346532104   19.06915958315412
In       25.32444300237998    1.39015861443698    1.16712125454421
In       31.05491977735143    4.38696705797651    2.09260620804761
In       29.28968958947709    1.14371303067443    1.94129637666083
In       27.45277653150524    4.46740442152191    2.18339202055869
P        27.52344554836964    2.40537056171187    0.81305412307456
P        29.29909609365792    4.33577457696763    3.83813277644221
P        32.38699298698158    6.28668051617274    2.92560793648747
P        31.47035974753238    2.00770228331650    2.56708553573594
In       25.64295644543512    0.87498579462796    6.30028484004430
In       30.89403998080513    4.11621358660031    7.16201514141418
In       29.26672097589261    0.83811063694357    6.09811825939357
In       27.30412057205859    4.16491149545263    6.91603345535476
P        27.42272706894788    2.27500515554637    5.27651329575251
P        28.99369752889011    4.55550164656239    8.68840697800277
P        32.74907622286970    5.56839955805641    7.97918608203450
P        31.25940574603218    1.65869519310413    7.27702133020517
In       25.01561048136469    0.90393346886393   10.89553486907815
In       30.52527389483963    3.59286179112518   11.91220484527514
In       28.66284544323280    0.96359677978597   10.12157209277093
In       26.68272259067100    4.43977089099960   11.08959938273897
P        26.65779922243457    2.34135462046360    9.76241179217296
P        28.39865976755130    4.41658819359534   12.89583289697517
P        32.51041398613813    4.69661826568572   12.90425437862490
P        30.53111784722562    1.12586953837633   11.69250956854385
In       24.37143572922702    1.58012382106023   15.63888375987638
In       29.35668937002707    3.61843606289444   16.90123311129635
In       27.92555337549283    1.15979355341806   14.46779815186301
In       26.27909920381214    4.75252288971588   15.91429780302630
P        26.09460592822917    2.80068031144144   14.36458764156102
P        27.31436217958244    4.33266758209865   18.11284759154179
P        30.33770509018642    5.21808197639971   15.29909372555167
P        29.87516873347541    1.39767524315255   15.92509876945230
In       28.68863986329417    6.63632850278250    4.54323833838528
In       31.15630422525400    8.00539023350188    1.71645605485456
In       29.40718511812416   11.06647420438617    3.42230270055278
P        29.89743552175351    8.64862586049094    3.72181199524549
P        31.47811793653409   12.15449390380825    4.07468263910354
In       28.44962146862431    6.97987880885420    8.53703166253649
In       34.17460863402930    9.86304119193698    6.87065452866117
In       31.63878981926085    7.50299815445707    6.87230756794249
In       29.99550979530049   10.58772576042609    7.61437916986658
P        30.42150784932153    8.46178508443338    8.81457498943843
P        32.37014563728454   11.15209122478754    7.83932646780033
P        33.27294546397853    8.32362078049688    5.21728233332263
In       28.46471804761289    6.90563902099020   12.71525033274044
In       34.57743696140988    8.96937185143944   11.92148298435228
In       31.83662090522037    6.82909655081220   11.80516894502252
In       30.61629685371911   10.08032390039012   12.50318137105969
P        30.54775246223977    7.88901035155127   13.66010213453376
P        32.86831309678539   10.67879490587988   11.75852469193443
P        33.64810684640429    7.46452261675861   10.24591678779734
In       28.14703693477429    6.64495614169793   18.41898181918244
In       31.98438456038347    5.96677442390825   16.93533552171475
In       30.53077519741454    9.42056077211401   17.72163694286686
P        30.57215849641269    7.11830318974765   18.57441466716776
In       33.31976130732455    1.55694573535000    5.94323323611616
In       34.45359597795957    5.05636845306947    6.28061243298000
P        33.16526714586077    3.67065940477514    4.72713393525575
In       32.75855487225866    0.78651501257919   10.73387968575577
In       34.26103986194973    4.09745962910230   11.29375314152390
P        32.91838217404139    2.94725124430343    9.59265598111088
In       32.22336360073146    1.66440132206277   15.39560776705335
