142
 energy: -9.261186038688 gnorm: 0.000412140728 xtb: 6.4.1 (afa7bdf)
In        4.15502895795731    2.08536975214166   12.03478456147594
In        3.35999166194859    0.00336622640030   16.07870688881794
In        2.08428417007750    3.10915921050225   14.62957480093397
P         3.27811955143251    2.37787950252911   16.61632746271282
P         3.89172574957633    4.20449992752586   13.32304229569981
P         6.45255852128110    3.35569317038516   16.69973917122165
P         4.40249744524987    0.43536451784195   13.87458017622793
In       -0.27835206686741    3.03923074724342   18.74442420519754
In        3.60539884462866    3.95559120806373   19.72939864745435
In        3.71587691306873    0.79214855316949   21.58976695025286
In        1.61024568207107    4.75763926998538   22.67658426905894
P         2.70883896466921    2.60329652634475   22.84714631429896
P         2.76450190076860    5.99552335388382   20.86752520123633
P         5.45623590423439    4.60880342846153   22.89998328487726
P         4.91198792659453    1.83541634104389   19.68098739980328
In        1.38623926864387    0.46400949779612   26.18827587682626
In        4.74591453195611    3.48639416572897   26.18864562199624
In        5.06681338777390    0.09557438285769   29.28239883700253
In        3.35728171919316    3.22951720610260   29.57894344774738
P         4.52403231399669    1.67749598647187   31.05757618070994
P         3.50995960205860    4.93326297141090   27.77112693935398
P         6.12108258068109    4.69836896173407   30.72483812574110
P         5.71870065044408    1.50120434034227   27.33459223755520
In        2.67946601919013    5.61495822201712   11.71334075783125
In        4.67108001513844    8.83008633178495   13.03940948367863
In        5.24057027622450    5.04402066238574   15.27603580973107
In        1.61127099405212    6.79915840223931   15.32200398254868
P         3.26929433818471    5.63500642117257   16.64858561568176
P         2.52845642892631    8.71627136534702   14.16602546212220
P         5.17305403060919    9.12269643081444   16.54142537960403
P         6.04916499972152    6.89949462947172   13.76316043924653
In        1.57177632374168    7.51914161211951   19.39050238324580
In        4.18339590092614   10.49279085907286   20.06335609609268
In        4.61823330260361    6.85239606339818   22.31173940185796
In        1.68250008754940    8.71901458109185   23.36850087514890
P         3.53458138306377    7.55478564902909   24.43140523617598
P         2.39103685884672   10.30226097730853   21.68254658572637
P         5.26348295996669   10.92198077527188   23.69711579105519
P         5.51000968648579    8.48541051751365   20.62455601854581
In        1.21481579224004    4.89656087481237   26.90391633754025
In        4.09821531927869    9.99936649355259   27.27296439675007
In        4.79898782403405    6.32389641135570   29.42122999605992
In        1.53358043765373    8.35248622890384   29.42593122704328
P         2.89119492332467    6.94827013919598   30.85706623405516
P         2.39654500962290    8.25549885583420   27.15601992561702
P         4.69307564253475   10.02657718741719   31.38779838950725
P         5.65549290757463    8.26591231423938   28.08538074630361
In        5.55845500075572   -1.46723327733558   12.85740634658512
In        8.97070871208850    2.62691154320945   11.70405207114870
In       10.07168198821292   -0.36396872368099   13.70615373956052
In        6.27581460483433    1.91007255560320   14.68291035598922
P         8.04506507953882    0.19198634597014   14.91751887148463
P         6.96651811480606    3.49960275608905   12.87093776136566
P         9.60367186078155    2.97581052079651   15.47483257628036
P        11.04796018322853    1.51181830840511   12.42199702591948
In        6.33270137202163    0.15031809686291   18.62516846090535
In        9.12079202545541    3.19114848010579   18.96634659238249
In        8.86537346289909   -0.47807251576744   21.60798933203474
In        6.45120443036941    3.12827797942583   21.20675168488343
P         7.59288762677733    1.37364901025065   22.50796803577996
P         7.16907346182366    4.69063098731814   19.35302878778436
P         9.40297376773280    4.39418134382238   22.45051800745263
P         9.89808043275931    1.04793040249673   19.94725072745487
In        5.77689245036785   -0.10323352743891   25.47531718941815
In        8.12347631165377    3.34542346787885   25.51232174432780
In        8.43330736374707   -0.16479346289300   28.41421178253604
In        6.80027236394577    3.02517009386925   29.02565942799357
P         8.09009089867446    1.33139754277902   30.30904703604385
P         7.45700347515852    4.81163431635380   27.38653831983468
P         9.61636855488302    4.45361307689340   30.22050390535505
P         9.13463611613259    1.36018533987276   26.58859395436479
In        6.37551131072552    5.59407294244526   11.67723335026595
In        8.49444062508510    8.62959146085125   11.94210671834391
In        8.27927123951041    4.85044167205409   14.57647354230242
In        7.22053997092853    8.14429017599520   15.59913447032661
P         8.24759683897494    6.15514885814518   16.70931507236349
P         8.24737665992279    9.79771538732199   14.05935789232580
P        10.72720515476082    8.87188120674111   17.00500313743274
P         9.24808746532761    6.50984341931442   12.97786749606774
In        5.66137295944852    6.63549958369122   18.98886937817429
In        7.95189914070186    9.67813437661684   18.92203082939491
In        7.92407278272574    6.04602631391324   21.37523523140684
In        6.88617496354429    9.72382394566766   22.31476010461827
P         7.60297650892201    7.56745980178295   23.31442239427957
P         8.17371671449683   11.21007092806061   20.80079429011670
P        10.18668444904129   10.15327858489483   23.56055790766064
P         8.96076950735960    7.53276231452273   19.64885649333642
In        6.24248277485674    6.67032891016199   26.28353373212039
In        7.94381993477938   10.33120532012430   26.49827193161844
In        8.56136730910577    6.35835061329907   29.02672100314557
In        6.65339531795528    9.43896572056635   30.05291270023733
P         8.06926469655471    7.69099689704500   31.04346528915085
P         7.33246683841290   11.32902099998273   28.61634491179272
P        10.41679077169769   10.97776276294683   30.32013132286623
P         8.88455658618993    8.21743489818459   27.36530724649916
In       12.88497176876182    1.83827275679039   10.85347195748457
In       15.32459692253764    4.85045813378150   12.55807911174604
In       15.31398821288818    0.94444194481588   14.02661827123558
In       11.83484316887069    2.77626278702170   14.43980119161560
P        13.28528074574884    0.99395997694438   15.33091579571629
P        13.03123121605458    4.75120242789785   13.45076496654052
P        15.80240491688842    4.20831515702133   16.37227544732028
P        16.49843577480356    2.77743119966439   12.98904109537308
In       10.70274648810493   -0.37610514994498   18.13126328117364
In       13.04210677342414    2.70998639780195   18.54243520379337
In       15.07271588377969    2.16840935273670   21.55583794717352
In       10.83093012744663    2.49655649410938   21.77941287317973
P        12.93366988344514    1.29036885438086   22.26553306634888
P        12.08965122037509    4.09778158306080   20.33350743246742
P        15.32603339239639    5.41722986019394   23.26512048998830
P        15.30421529343775    3.13613267050280   19.33828055417372
In       10.82284812711694    0.14623153973661   25.31288396885569
In       12.36176594029503    3.83654338288162   25.04984755482621
In       13.81110357387283    1.34729061512506   27.63396647942415
In       10.06512163694745    2.94565566942051   28.31315821753178
P        11.72028715992948    1.20523644378633   28.84493971194085
P        10.96243856359237    4.75573833392183   26.84554995849443
P        13.12280671066719    3.78090896209477   30.63205591158490
P        14.43055320549661    2.88173136433069   25.86442116346744
In       11.39022626730759    5.80153526289227   11.95758054408077
In       14.21625276945885    8.49793941477306   13.97181480582929
In       13.72403910367286    5.35882968764815   15.77870593964110
In       10.48478142177368    7.60036136331236   14.91115643431999
P        11.28457548408523    5.61392136724323   16.16052886744585
P        11.90603499421935    9.12770024092704   13.61290565382187
P        12.55640953781992   12.14746875856555   17.46307340719088
P        14.30951795206401    7.71152450870697   16.26780334174538
In       10.93173503798866    6.05949096489797   19.36212991234893
In       13.38337612111251    8.96169730174055   19.59184147731477
In       13.63713387280080    5.70038486736453   21.50434513328657
In       10.12652752690041    8.62145587726537   21.63390254137999
P        11.70508847662146    6.90803163415946   22.46537871662520
P        11.24789682020011   10.06916049532917   19.97283342622283
P        13.90149403702636   10.44062567791963   23.50587867147535
P        14.17060941854546    6.67552505031616   19.28589321860173
In        9.73908055786051    6.57571459367343   25.72391618985837
In       13.30846890457606    7.66758315968264   26.04062894453359
In       12.56289632520969    5.21253066164106   28.72719518580008
In       10.77884099364350    9.19122397456409   28.69012001759332
P        11.74630846420387    7.25074532708029   29.84236854297009
P        12.02149007792110    9.63522759538804   26.60402814309928
P        14.43890580684847    5.93556495066697   27.29277358184507
