48
 energy: -3.264300893944 gnorm: 0.002455134499 xtb: 6.4.1 (afa7bdf)
P        13.93771438418793   10.32368148377027    1.63093121347288
P        15.08420326237757    7.58385900551812   -0.63709270269872
In       17.71459449709912    4.90966440591430    0.42145592850075
In       20.51440352063917    2.29441374429680   -0.09334983837276
In       14.99686050694704    1.87349098019797    1.54668217041661
P        15.43449494493812    4.21205633176913    1.07618643199687
P        19.40863969857265    6.39743663310981    1.48256551675198
P        18.60207949352807    2.77943644604461    1.33128653197762
In       14.69980833786878    6.53450001155437    1.51446103011245
In       19.62875885542439    9.68367389463489    1.82429666196690
In       18.29782506591915    7.08780154234560    3.59575804282375
In       16.09079094134458    9.49694952928814    2.40431851227406
P        15.82558250905720    7.32681791138180    3.56736025366185
P        17.65947224995529    8.78147073934851    0.64458755613706
P        21.50191425776994    8.15291037781673    2.34046928527619
P        19.22352032522939    9.30431251589221    4.24189791893490
In       17.61449957547256    3.50398989094723    3.48063642359336
In       23.17382145285045    4.20095531961275    4.78199571637119
In       21.17439504396400    1.04514038320575    3.64100561210483
In       20.83438351668977    4.72534273639833    2.67167602513103
P        19.91442424205854    3.04692399414706    4.26172651386073
P        21.22231168160130    5.76864153513953    4.92311427452094
P        23.93756669599338    6.13411285988886    3.40579167177659
P        23.14165981288771    2.40100897912119    3.07371731816973
In       21.03277205889312    8.17634996855974    5.52193164610055
In       26.94007569117280    9.77664480775944    2.77735881597787
In       24.76659766849149    7.60318308828974    5.21866644231573
In       23.15703376143616    9.82302399859838    3.09740017400827
P        23.15593729198068    9.45716230988808    5.53877984271845
P        24.95643320318775    8.49299931154028    2.05179855634907
P        28.83792170865265    9.17079650693121    1.32252593621625
P        27.06852414745647    8.46878618988995    4.87144589466306
In       25.32061700222749    1.44041042652860    3.68444696669147
In       28.59639978661708    5.10722447062222    0.14871681463239
In       28.78555794819175    3.06433514633219    3.36929691249790
In       25.35767030227457    4.85738896967799    1.79772387155008
P        26.41343984640277    3.64548355395385    3.68722884577892
P        26.95940061486787    6.67856983188258    1.16949042789557
P        30.99773926766335    4.57933413009371   -0.11228486571838
P        27.95715950614776    2.89972977207079    1.06676605131960
In       27.89514167598126    6.60337346084191    3.46577476479283
In       31.62034016208770    6.55151952994956    1.24551519852972
In       30.40857329386173    8.99364371786681    3.21161855718486
P        30.37245314327447    6.51948503509293    3.37796392305177
P        32.68334899643956    9.76608171634447    2.82974068583421
P        31.28529630969760    8.32598191445257   -0.37642111339065
In       26.17621669175779    1.84870985995088   -0.20096464738253
In       31.60119593848740    2.40046600945107    0.73872222963592
