178
 energy: -11.684703680259 gnorm: 0.000523777988 xtb: 6.4.1 (afa7bdf)
In        3.62528195225474    4.73671056256899   11.71753225288782
In        4.49264427333302    3.07339801882658   15.31778695877342
In        0.82829116973546    4.43639644610736   14.84652763542699
P         2.63168059694258    4.14424962366992   16.44071150609614
P         1.72338249882201    5.74258056689164   12.93863223858546
P         4.95647523903001    6.57393083418164   16.02159022017081
P         5.38334919176862    3.98098012818883   13.23270411996871
In        0.94755432327503    2.20018018107160   19.54047533546019
In        3.09426771076354    6.22549874623613   19.20515653160123
In        3.73764735989859    3.97372119704285   22.28066178123344
In        0.21802508856502    5.49498858745653   22.39256242196661
P         2.13823125952552    5.00362949571564   23.80409478787227
P         1.10636398167455    6.88917528481551   20.54326556719569
P         4.51268616687308    7.58353524547469   23.63934009194146
P         4.93557376898686    5.31041083609131   20.58163033781132
In       -0.93553480723332    2.98248980517810   25.83128793015416
In        3.11134755543007    6.72812691621259   26.67134786829088
In        1.27674050601699    5.25827887693376   30.07658112242576
P         1.47625654713619    7.12530060332808   28.50066738345720
P         4.90607095633446    6.22339460106883   29.56920422732547
P         4.32035729180083    4.73149780936493   25.88322839355976
In       -0.10057492097936    5.87567062761623   11.30751077300508
In        2.54561720717178    8.62317822217675   11.23971988444095
In        3.13521587103289    7.16101058365041   14.45930618192240
In       -0.57365685087819    8.16231730531542   14.59224942619736
P         1.36144875219734    7.87343986685914   16.03183059608559
P         0.73655716992380    9.27052327291578   12.81255856332093
P         4.39584026462201    9.94148231171644   15.83392818371781
P         4.53880478385899    8.21222016218753   12.65934822978554
In       -0.74435469405580    6.87394526143029   18.92872670541178
In        2.27362190744837    9.50690338155155   18.82388476607978
In        2.68521498865120    8.13463489882295   22.06723986255778
In       -0.95619727841481    9.35581421581780   22.07758292564164
P         0.92620510420645    9.01619107972482   23.57506818498417
P         0.37037482040016   10.30335612621951   20.21239621303385
P         3.98892123174108   11.04395893727469   23.33644243294624
P         4.21898476491793    9.06350627511125   20.30343607577061
In       -0.57121640506617    7.18061167248504   27.15212980861770
In        2.70354184428537   10.05805977758783   26.50722508431987
In        3.43845957918659    8.21356757834203   29.66745228596995
In        0.11869042191234    9.77077803567426   30.09334028304157
P         2.01198605329216    9.11463913656074   31.47557600229574
P         0.92639994251011   10.91501335112655   28.03174765448360
P         4.60514110945641   11.19023746904041   31.03064668921154
P         4.67884724126910    9.32841559273939   27.79533838563738
In       -0.47828194604921   11.32557444172461   12.25420384300294
In        2.66414658033310   13.64423084503984   12.14100502950838
In        2.48649569347177   10.31777385708143   14.30413751032043
In        0.57413278438198   13.80899899237383   15.50614466218808
P         0.93968429181294   11.44069193353487   15.85751851755639
P         1.92115123820654   15.16558961428760   13.94164636036799
P         4.09132072624976   13.20979580519622   15.82984603646613
P         3.74796759228374   11.44600765284488   12.47516140213380
In       -0.64434892934530   12.37636805621499   19.39730569657056
In        2.64475185879770   14.49666506821051   19.38693017439842
In        2.18157853290884   11.32969571242310   21.66399911816571
In        0.00402483746057   14.76014203684035   22.63783945562268
P         0.50305758409369   12.43471217032170   23.09761230561292
P         1.07201537206967   15.89659904478025   20.71203200686083
P         3.56891716213742   14.31403710083287   22.77803778434118
P         3.59004569156542   12.24243820387916   19.81110114849345
In       -1.00463077456383   11.12980511362041   26.51348212014598
In        2.31035682059340   13.39383355376468   26.18513271275307
In        2.75493331133760   11.83839720369923   29.51318237296607
In       -0.60953855489102   13.29255794790179   29.71850177932128
P         1.21081865436357   12.72826605653591   31.24094315439503
P         0.50193133720865   14.19726957962794   27.68745963808345
P         4.07617877178316   14.74283749460109   30.85034594967657
P         4.19685919383327   12.76010988782204   27.66809560597202
In        1.62552963541017   17.39188556510118   12.97869349953762
In        3.78484365876616   15.64376392790243   15.56150638895465
In        0.24689968582114   17.58378411890738   16.63223294318850
P         2.50684299670742   17.00643952565071   17.18955229427678
P         5.49708431998757   19.27427793137311   16.68198044266611
P         5.17172747401408   16.89731520525604   13.91667105768392
In       -0.10134931145336   18.04511342351172   20.60550602551795
In        3.22385930501198   20.01277005976976   19.48620106801242
In        3.11519319690938   16.60888272391783   22.00446914496011
In        2.92747438797987   20.32319406349819   23.32267310367281
P         3.32298333175445   18.02512656072629   24.01062621280525
P         3.96091873933443   21.35132395075970   21.37362121236517
P         6.70132074806119   20.15896850496841   23.71919584677562
P         4.23662149602943   17.86558651591118   20.14389380959456
In       -0.38250782435533   16.28456285504147   26.75878595674508
In        2.72881467307718   18.38434082857445   27.36307046572725
In        2.22065891913288   15.15922463029506   29.27762601496405
P         0.93927706123380   16.90168915936646   30.41767584780788
P         3.94635984241800   20.31177088423669   28.12010335825026
P         3.66609422261940   16.08485696515623   27.46806329925014
In        9.05060292031397    4.49703036396634   11.95843505863982
In        8.53812110772469    2.76084082523279   15.79175975810508
In        6.54052470150974    5.92998484858296   14.24323954156319
P         8.25619593040784    5.14180340766359   15.83179677765565
P         8.11126900373771    6.71177850546846   12.42695625612482
P        11.36110637344270    6.25180942510245   15.01793388976558
In        6.40768969985146    4.03581185991747   19.12010218347935
In        9.74609238328912    6.40240899088621   19.12764524515215
In        8.88167663852297    4.17011591811439   22.28584624392176
In        6.28521609703833    6.63708856057082   22.22175689799407
P         6.98479064558995    4.75781989107162   23.69038358442524
P         7.96460084956242    7.40758683561385   20.51833202750320
P        10.33350320010576    7.09367424934416   24.15875531810837
P        10.67138958777008    5.08825591833683   20.94064228126333
In        3.40967019195817    2.60828380056459   26.66835870410563
In        9.32860870830300    4.05076276156648   26.37171447126244
In        5.93436646325998    4.89842150996159   27.78358679745212
P         7.83156262045784    6.01046545258110   26.58743290842427
P         8.65440243557123    4.60669783428527   30.09999288313055
P         7.82061625946339    2.29259028194911   25.72702019517623
In        6.22064628972009    7.43278395021069   11.00040608653206
In        9.17292256642443    9.37844612086850   10.79548794624024
In        9.68898481418156    7.76924595522005   14.05905964296337
In        6.17887758031805    9.18611806246358   14.28407233488691
P         8.02418203622699    8.44150922952055   15.76106931347244
P         7.43993081898563   10.19670698097839   12.37459761985086
P        10.97366525083577   10.73909841493536   15.50813183399878
P        11.01933373396720    8.93082667351516   12.32196206347497
In        6.11219338881695    8.08601644383588   19.02276661224102
In        9.34439809976867   10.01764096010928   19.00761725869705
In        9.33667113936607    8.41560650511382   22.35269503157848
In        5.81189545088637   10.13359033930529   21.92161515110713
P         7.52871936015397    9.54430298002663   23.59261595461444
P         7.40693226189700   11.02093739708491   20.19460463386205
P        10.70656337532924   11.62077325764894   23.48138772909569
P        10.92932274004685    9.43200970072152   20.76161223940538
In        6.46183007609050    8.08908623343731   26.59777279032114
In        9.81167427293075    9.83135497819989   26.70029040409386
In        8.65669357836191    6.72319187876837   28.87088916408531
In        6.28113155448528   10.37880959583850   29.40919695804043
P         7.35889939325225    8.32383634667701   30.21946636695367
P         7.91136367028759   11.10246342498227   27.62987962534631
P        10.28872760839845   10.33438847054963   30.65916425077063
P        10.60651426557083    7.88172055168561   27.89257158012315
In        5.52507582292992   10.76199183526668   10.88852157180547
In        8.37425376672666   13.10936774713321   10.46713075601633
In        9.17786463557029   11.22076237902583   13.88566271228436
In        5.52934054507976   12.39519224078022   13.99967420471488
P         7.43345522759388   11.91251851534376   15.51414124774109
P         6.70914078168501   13.67588650190306   12.20512242679417
P        10.54946583594561   14.37361559024255   14.96496710988220
P        10.16428078971098   12.43090825025483   11.96232452026006
In        5.58077198759506   11.42899578562687   18.55725696544741
In        8.74092034605056   13.31732594032540   18.34594375368600
In        8.98910763921723   12.14395393695191   21.79692535115130
In        5.29415049614077   13.24793205604216   21.39110086830853
P         7.07842706432832   13.05207085990479   23.10087732985359
P         6.82091900763990   14.18031692362949   19.65847869500014
P        10.16839330901282   15.49424822965763   22.91226588395386
P        10.45627995621722   13.15034146262993   20.06524726410333
In        5.99119762190399   11.80914725948618   26.23161490932203
In        9.15301993316548   13.71479776196497   26.12319446286319
In        9.26251403788305   12.19641082703442   29.44728272820347
In        5.76692603467014   13.85686165236326   29.29056829635316
P         7.50672537169024   13.14682744696270   30.90010468825340
P         7.25119202120120   14.61818131378782   27.42588271458938
P        10.65177140870951   15.32812860145045   30.71655790986110
P        10.82798162068466   13.20602110666190   27.81479610030587
In        5.64789691076480   15.86743607966440   11.75937533878888
In        8.41024797187100   14.69311565318874   13.78740624063439
In        6.76049773169738   17.42792341860352   15.73486079637471
P         7.05301691444823   14.98345835956919   15.83433636091593
P        11.13073967585802   17.71055322543212   16.53878047356579
P         8.95581428725329   16.82793841085360   12.72277892461074
In        5.89793040609284   16.39952519055132   19.06163635876426
In        8.69199799698507   18.77510421904311   19.23718363314235
In        8.32672480816149   15.41951608259304   21.28542078955832
In        5.81742629010809   18.68087132082864   21.95368187332533
P         6.42745851625725   16.36674292023577   22.54872831104468
P         6.75847964308830   19.96861626476056   20.07329265068607
P        11.77990409238619   18.50953360850940   24.60383829274306
P         9.47183355322896   16.48095054351680   19.37577763331456
In        5.35935398050727   15.16768133989924   25.90712465939430
In        8.20142012002226   17.48943976888230   25.70026848024092
In        8.88782649798722   15.67556107181179   29.03338813907937
In        5.55341760684835   17.23133169385507   28.67684196581211
P         7.14190079100130   16.69228321068316   30.46484784492388
P         6.23229708724750   18.51513052235967   26.69003304654819
P        10.02447829969524   16.82520040249599   27.15594580800894
