44
 energy: -2.786131963224 gnorm: 0.000131482096 xtb: 6.4.1 (afa7bdf)
In        3.85843663532550    2.68594876771947   11.25171430154691
In        3.72608534143415    6.37745337029347   11.04838130740945
In        1.20159360698862    4.29744707556006    9.17597763422678
P         3.12108715455406    2.83574278044793    8.92971469803576
P         2.34108615764627    6.46061978790184    9.01146548133065
P         2.63463372376625    4.54824795843711   12.33620680035540
P         2.99319904656929    0.60807283022266   12.17750690529296
In       -0.09406685709985    0.98613283189713   15.16300861343484
In        3.24464626409771    2.79279593126822   15.27042359185311
In        2.98511490693275    6.45335549800018   15.36788427442552
In       -0.10487493751782    4.64120527088208   14.89268784012046
P         1.14017084146916    2.70678166451731   13.94042545222212
P         1.10004995963675    6.48188404366933   13.73543119244615
P         2.50247738308657    4.52775944113373   16.87341166904020
P         3.51173323119814    0.63897121461685   16.36535105136944
In        1.17126513560355    0.61516999567374   20.20165087193935
In        4.16963426497297    2.78159655588026   19.52267776516445
In        3.68380823373665    6.55662452631094   19.90411669271926
In        0.73890994101605    4.33025136744896   20.09977079111048
P         1.82226465475991    2.50857033389407   18.79797573621385
P         1.45445189788718    6.32477833398103   18.80014479276128
P         4.20211818451785    4.53569051478052   21.19188591640860
In        0.88857389600686    8.41548099125068    9.24478446899217
In        3.74400829329314   10.11289449407610   10.93654364268466
In        4.21707323526370   13.70126503291895   11.09825311795520
In        0.57114542515574   12.35509086134581    9.64561738147280
P         2.09897821798630   10.54453177740856    9.14202210307368
P         2.89217330274715   12.03919094319491   12.25985889520857
P         2.63892101630755    8.29215256736777   12.20764352363588
In       -0.13909424512929    8.39870621495256   14.73409305989638
In        2.94422577791656   10.19259643676967   15.45427401455164
In        3.35061565455593   13.80654352349948   15.63259055874014
In       -0.05361397568426   12.16333011044457   14.66705415131610
P         1.17643242466614   10.24145994469562   13.68818295821293
P         1.42050480612196   14.04498722694757   14.17811956771028
P         2.48760273742310   12.02736021106457   17.06691478062689
P         2.31947321197073    8.27974068147728   16.91899037030000
In        0.55908898902812    8.16833319274304   20.21830144317200
In        3.75326694298726   10.12695550272671   19.76846090465654
In        0.70645610214649   11.92895080387583   20.40234664299708
P         1.41584075154441   10.09648191156444   18.89149678526649
P         1.52064737703672   14.02555581561749   19.53953478679421
P         4.72177912636538   12.26033640256865   20.39607676884887
P         3.64812116171046    8.41003525895874   21.51322669444819
