94
 energy: -6.775922323560 gnorm: 0.000762107008 xtb: 6.4.1 (afa7bdf)
In        2.64268629672492   12.14400212439520    5.77790515897640
In        2.39215569595643   15.95657047768204    4.80433009941623
In        1.08495898258302   13.57299511858873    1.84680332008314
P         1.24941666929179   12.12632425271782    3.77855887053960
P         1.94386131015600   15.81040602042101    2.38079653293055
P         4.03190890995355   14.17791359612210    5.44081029129127
P         4.03228891459887   10.10814587958032    5.93653599619042
In        3.70387403530947    8.10525131096936    9.20569612976753
In        5.37518401842741   10.89520801844868   11.17988462888999
In        4.63467622232744   15.19634837833042   10.75675826186100
In        3.07343318095407   12.50426297705119    9.29880308209051
P         4.40105564055525   10.43640430252127    8.92701300767488
P         3.80895315438374   14.72041617258660    8.43798648091314
P         6.12899193562188   13.21545767637006   10.74571072202412
P         7.49398650835891    9.75044028518175   10.72219405792223
In        2.24679387916453   17.58860142484636    0.71656885399672
In        2.98469528526959   19.63008728311849    4.54803707216709
In        3.47128537491728   24.15360767852592    4.00815935900599
In        1.88260973753487   21.85651265364938    1.48210241405653
P         2.54149201883576   19.57923372941782    2.12161691230494
P         3.21067530913831   23.92099959874564    1.56644661795068
P         4.07684396677767   21.85885786857752    4.75480308405993
P         4.18242314947609   17.60105011904137    5.38148312006969
In        1.79030424640937   16.13693932294764    8.66371899946891
In        4.26760683854410   18.92343742794903   10.72251531159971
In        2.98135677920728   22.20482214205927   10.19366396269388
In        1.26620295648259   19.84892286123472    7.88237251303440
P         2.97976048874202   18.29041836803761    8.70702238391770
P         2.38852220631598   22.03316749291925    7.78595200327905
P         5.26147531625657   21.21313164117563   10.40760170706450
P         6.07564889952587   17.22851541516648   10.66069733292585
In        3.25796798506304   26.01137208625880    0.28599255613537
In        3.36522533250021   27.80606441659310    3.76602522122490
In        4.14527721434035   31.66233878196746    3.91762825928225
In        5.03152074240894   30.03720996369182    0.39527004113256
P         3.85459175168882   28.12494589246556    1.37106575561093
P         5.46679114893918   31.90750505826001    1.88946636926962
P         4.69825438585416   29.52200234035445    4.99798069209917
P         5.02155962093951   26.07232321419642    4.40532295085640
In        1.12658807625512   24.02123147488041    7.08240359150375
In        2.06790751854974   26.48553363102358    9.71079404123187
In        2.95069060916797   30.62673566651202    9.61663550221039
In        1.13412159997688   28.51583056542543    6.73069091195224
P         2.04142714926906   26.29546243745558    7.24092414097358
P         2.56932112276714   30.40466211443858    7.22801661246886
P         3.54825139354731   28.36505730257138   10.34631037783036
P         3.62927537453183   24.59496356593418   10.01203243948651
In        3.90421191841885    9.61524603330428    3.55835145557133
In        7.34924860754529   11.13246233757528    3.08122645869735
In        7.64175969471666   14.87786192683672    3.25329726786126
In        4.37573855471440   13.57671208844367    3.05935964993134
P         5.03717005285580   11.33168881336494    2.23879368126021
P         5.68354146081669   15.26184164872863    1.80406615588419
P         7.21398962808722   12.94339074033316    4.75965290998305
P         7.69108444556586    9.03908075761785    4.27359014299035
In        7.22872765353377    9.08126721702259    8.40708460063473
In        9.39796263143485   11.55254536607988    7.36332532955388
In        9.02273994765373   15.11084600108606    7.80677669221474
In        6.38813621781706   12.84699748352534    8.31734185444868
P         7.05439703860525   10.95430676241596    6.78992979316024
P         6.74534806731063   14.82915671812435    6.80376876201733
P         9.50695245900036   13.14561079400478    9.20691319120826
In        4.88181916034831   17.28136125352184    3.00408916654552
In        7.88837331917838   18.76824419248052    3.39313066655662
In        8.37596641675890   22.76101100608438    3.63736073813993
In        5.26959556922070   21.51196715148228    2.60752343241980
P         5.96141078016566   19.23411937224740    1.92079553669216
P         6.83256227693899   23.24551027958038    1.77588557235980
P         7.60730391170995   20.75010805683029    4.86824196230512
P         7.39093017611028   16.79287344579075    4.82582501603303
In        6.13341409855193   16.81686424501191    8.23437156139293
In        8.68791111330886   19.23914697092889    7.91937497928843
In        7.89148733629833   22.57095285824980    8.55798274100935
In        5.33350556866998   20.48168980443753    8.04107244430442
P         6.56457701450750   18.74511966874492    6.69709473879476
P         6.12990082630974   22.47350827053829    6.77809986678955
P         8.16632126965186   20.52922141991273    9.94739002121097
P         9.30567491319544   17.17371651808894    9.10139463135199
In        6.15106511843807   25.57751520163169    2.25801226219740
In        8.77074740442392   26.35119376926958    4.31050793295736
In        9.28706873467859   30.31295465361147    5.49053438221213
In        6.52367712881835   29.01273531711766    3.37691426555832
P         7.91242405630832   27.31757828429314    2.20645389314029
P         7.69535954867635   31.12653027245226    3.84795348284927
P         8.46424629579966   28.09248536679014    6.02825752190731
P         7.50180788945022   24.43853415689011    5.25734753363159
In        4.71457563484808   24.29652194526516    7.80981777929675
In        7.36206274742260   26.10315382641264    9.37109005398642
In        6.90600461034178   30.26095619632313    9.96019239298393
In        4.79634507618902   27.92145328834040    8.25809047558278
P         6.22082401910042   26.18808319195773    7.13611029665872
P         5.95831647305668   30.02974875922056    7.73804419911955
P         6.89764099896694   28.00315376475348   10.85278631432487
P         6.60321568084023   23.89336267300679   10.19154844148402
