12
 energy: -0.597535886247 gnorm: 0.000233218314 xtb: 6.4.1 (afa7bdf)
In        3.88421269187518    3.09531563433272    4.48060448363092
P         2.81951914804623    4.28738431577589    6.23580007020132
In        0.28325848306425    0.01730928263196    9.14528987631281
In        3.63614155355481    1.63900685491274    9.01203516931489
In        3.46878241718308    5.72186424996961    9.89247554439349
In        0.08007159753361    3.84270050555676    8.48791171631183
P         1.39390736244078    1.83773746385579    7.98889038012865
P         1.34356839893305    5.89209626981445    8.75157344748714
P         4.78829028742327    3.74119796693351    9.48029637171849
P         3.53704835216087    0.47801653863472   11.13239669975143
In        0.05540755085304    4.52834755563349   13.03569952772642
P         1.51507715693343    2.82738336194862   12.26538671302460
