310
 energy: -21.715367045079 gnorm: 0.000707831962 xtb: 6.4.1 (afa7bdf)
P         5.64651993818967    6.27655113837578   14.16251913347659
P         6.63120538865067   10.49655302337111    8.24732226292347
In        3.78265135998552   10.82387041608222   10.39849309727574
In        4.38298862356537    7.91950721807573   12.90546486748532
P         3.18380820725705   12.84734545558001   11.59282931485149
P         6.73806766080615   12.32502560198676   13.98731114917221
P         5.44066484972524    9.08975345182836   10.99343200376275
In        4.12113470721360    9.25182417918105   16.66772087852822
In        5.81046284908125   12.60766171606995    7.22840120934923
P         6.67313712829143   16.36967613722160    8.06982879484086
P         6.68256837451449   13.98970802645072    5.36315341275175
In        3.48018673322337   16.26935853500421   11.11680868972869
In        4.65359455212185   13.52742890402400   13.45484585024433
P         3.23178095891308   12.90656164914117   15.37438450152879
P         2.33944075930162   15.73044825060529   13.20459353404086
P         6.25258288588207   15.38756571157304   15.53255217179311
P         5.61545551543797   15.38351577396474   12.00293631525182
In        3.34610731494981   13.22197712676245   19.45339812884799
P         4.87324458660076   14.24343735080491   17.82558729206456
In        2.90639440036191   19.54552825871982   13.41775108596297
In        4.04020453902374   16.36575236942137   14.90106473721279
P         2.59969768221404   16.77236104344894   16.86516926910622
P         5.72304643371872   20.86305349370291   15.90353506205646
P         4.93109633101913   18.15505063856894   13.36787779629837
P         4.01626415159458   17.92456743172553   19.54330100200066
P        10.03539089775856    6.77490323240061    8.26596121282012
In       10.48635252993569    4.26291850387125   10.82740021887034
In        7.32550532805432    4.84690462122597   13.16168029426830
P         8.53196964285588    5.73379157471663   11.19040111625333
P        11.38078533705295    7.43586446972111   14.60427839376361
P        12.47901653672874    4.14895436651642   12.20993472313917
In       10.35815126124399    1.66638086052705   14.69603869916177
In        8.45854141768348    8.80563879357359    3.44326877581900
In        8.80253695559585    5.98682059613029    6.26725335804571
In        5.70245201803417    9.32666862428880    6.26778673441369
P         6.59743650733453    7.04910086783726    6.21435714764961
P         6.89902142397114   10.46725724445189    4.40682161135475
P         9.14122217539129    9.38379874930322    6.96962221652468
P         9.98590222084199    7.10312736061100    4.38334559349733
In        6.95907250159446    7.32919325643655   10.14613494142390
In        9.95220404502628   10.07344921794107   10.05423119564456
In        9.89689885282587    7.30003924549008   12.62876431992452
In        7.00886269798039   10.39356275222034   12.48260579044991
P         8.02237426984269    8.50514489423549   13.68532793834713
P         8.08604401855092   11.62646818656772   10.56722654707095
P        10.48586568648975   10.57508998874917   13.38030405598640
P        11.27062151534070    8.06378984031772   10.65755062182122
In        8.80833100787990    5.30700176934149   17.24975936059427
In        9.00986676872510    9.37943142484329   17.23457972479730
In        9.95082988574861    8.09223300553612   20.83374416488847
In        5.98662000771299    9.30775266037857   20.43565667154244
P         7.41043832019171   10.42238266678614   18.79917473343238
P        10.61756478381243   11.76317168971094   22.02977557232434
P        10.77748297229745    9.47233254540993   18.97654508155812
In        6.22315998615148   12.61200918021014    3.38028727181359
In        9.20627610523677   15.04597820207762    3.16193707338112
In        8.52965384792717   11.56876073955789    5.96613706626806
In        8.35061962448252   14.97362034276488    6.94578912267929
P         9.23025645586555   12.86550202008565    7.98568454226483
P         9.36996224324113   16.48052172037459    5.18696135578276
P        11.84553057690685   15.18723120425452    7.88952356758880
P         9.67040819521421   12.81508309370676    4.13180195360059
In        6.45903547074839   13.50212158350129   10.61956848120885
In        9.17608415855192   15.81455403309768   10.55891564034038
In        9.60505263900959   12.63280107782613   12.33767552221969
In        7.47479290375645   16.13115965730149   13.48463840715005
P         9.31073971597141   14.53087406140211   13.88384789285655
P         8.42226984300730   17.80768233832548   11.82727989265318
P        11.76089311042989   16.62404059506686   13.81593539466855
P        10.69229370833087   13.85701153658088   10.41356890465537
In        6.64592382043647   12.50607985360349   17.68611985521396
In        9.31524824949076   14.72472746476945   17.48153680847023
In        8.79004753448430   11.83030462162484   20.35968403236598
In        6.26540479379202   15.29854576495718   19.64596764820857
P         7.01590725541418   13.41356549629828   21.01439580534053
P         7.68807896921377   16.53560347017620   17.98843508387068
P         9.74827004487601   15.20041363211380   20.97561113535207
P        10.10273770654596   12.52982225154931   18.34757341046525
In        7.65218348903062   18.14833196009101    4.64554033495991
In       10.67727658315577   21.02172006052600    4.75761056431477
In       10.98133300383017   17.33375580905919    6.92007249409521
In        7.96479184020165   20.55717761657623    7.63256009708188
P         9.45408271603938   18.75131300789010    8.24574544657650
P         9.13408137730589   22.20393940481647    6.24681006797038
P        12.03262418916080   21.18544038629926    8.39591732327393
P        11.93506505294895   18.95106641902925    5.24662985684439
In        6.12777617609136   18.53452423626181   11.21775337359737
In        9.28487164839793   21.06659516673180   11.10926761406322
In       10.13537843769615   18.46891369233352   13.52248607292880
In        6.87405812881471   19.03543843523576   14.72066518080349
P         8.90458532657747   17.86332783619876   15.61204295113161
P         7.78942026759505   20.66955748596023   13.04714800627446
P        11.44603515079278   20.16883055572596   15.84172942643030
P        11.36438084584504   20.13154059540819   12.05718737256729
In        5.87110111936609   18.23534939391647   17.99771754236390
In        8.46230171926594   20.46598635630673   18.66862904102590
In        9.02807169299417   17.33767235974801   19.97437670862942
In        5.35488997764529   18.90416606292311   21.34425014441159
P         7.47985894799781   17.80874733228538   21.83076157680105
P         6.54262341441585   20.68183136571884   20.14319746154128
P        10.17120770892995   20.44648048516369   21.94515564632672
P        10.22565351433609   18.76686598204941   18.25260300286178
In       10.74352247811668   23.15388520656643    7.82806637711638
In        5.91601346768242   22.16053331720116   12.48092553997911
In        9.05557653696727   24.65340207369531   12.77753614101822
In        9.57126056579372   21.35892889435905   14.70242743387700
P         8.54816908572432   23.05944740070393   16.13495699657884
P        10.82366753975833   23.00944974923707   13.26262177220555
In       12.08999785150517    5.80592953341140    7.27307803704636
P        13.48153010504921    6.50267893978141    5.34439759179096
P        16.07569726506182    6.42672052763173    7.85314932684316
In       15.92694995770003    4.41381500697259   11.55572161388644
In       13.17728085448456    5.91272067763350   13.81705979020061
P        12.78502884254170    4.65739716533191   15.91858075784669
P        15.10964539645386    6.62657354326059   12.33185350285541
P        15.40244177464535    7.41524252856514   15.93624235041268
P        15.27952350547325    3.41684570887176   13.68983929019330
In       12.80526072349386    5.14681821431695   19.98944012098508
P        14.07194819074645    6.37548344871442   18.29218979003329
In       12.05000174423023    6.19625990967811    3.37231053696530
In       14.69122693280387    8.94945113225208    3.04623136649887
In       14.67084806343818    8.14596511011285    6.80384843806845
In       11.26063599499840    8.58855448701549    5.95676389442071
P        12.65974618277578    9.11661577347026    7.95729154361960
P        12.57278360702954    9.64350853693340    4.11718813860851
P        15.26367802711984   11.51685344597993    7.80112693263397
P        16.20603523380180    9.05116765631603    5.00721038076039
In       13.44667028825126    6.87140862066191   10.50218706140528
In       16.07280904391091    9.17521566558458   10.19609552358537
In       16.01496584465681    8.47380893341467   13.76261103153260
In       12.47765965299248    9.46730535294835   12.39166529350465
P        13.93807970078203    9.71904344568759   14.37045148216448
P        13.87679358298509   10.30995419113293   10.46719387865518
P        16.46360159947571   11.82224359861102   14.31218500909095
P        17.72844948268241    9.10594627883367   12.03784159776290
In       12.78621053380942    8.47398117658588   17.88881286053007
In       15.48484063129920   10.76916379325643   17.43105078295236
In       15.29408561429344    7.74627515453106   20.00711048096544
In       12.26774771580934   10.93723123411532   20.37433884518985
P        14.09504195397896    9.51216423714281   21.19814729471835
P        13.53291599785053   11.90923901335400   18.43944677486746
P        17.03959432174867   12.37253539823875   21.14802251574037
P        16.81205303286687    8.94674323089049   18.43468383427121
In       11.48401951590247   11.56625282595258    3.00982418352912
In       14.32743611583862   14.23860715134540    3.13065110057605
In       13.91100878569316   11.01823640612389    5.75872089374695
In       11.15292267113378   14.00109948141174    5.79762308995639
P        11.78699922784856   11.80553765181009    6.76493084804453
P        12.33357446391649   15.37404119556011    4.08982428982626
P        14.41882136427688   14.23439818385362    6.67786939412648
P        15.28371542129133   12.11008963302274    3.99521387628665
In       12.62524450478523   12.37844531260655    9.88835642150317
In       15.27511953386315   14.72940898545452    9.83977553694567
In       15.08060443221882   11.63062283985658   12.26762143255843
In       12.19527818405790   14.77232417607152   12.24211135527328
P        13.02819976554895   12.66024216969233   13.21634837851599
P        13.24983991658970   16.09041112892579   10.36477873890192
P        15.48649303338722   14.78986086522088   13.18136610046886
P        16.45934019124661   12.61578831069339   10.40584769232652
In       11.79180050505980   11.81916616905665   16.68602498223765
In       14.48023784465651   14.17582721404314   16.31119666723328
In       15.01119728752171   13.18762212177921   20.01155184690317
In       11.53963036865115   13.93780136017608   19.88179976887236
P        13.30693740507575   13.98209115241107   21.62366012923057
P        12.76514633930405   14.88861322689082   17.93696960781144
P        16.11624188619788   16.15842267264770   21.12780174454836
P        16.25881092281284   14.08249152896087   18.02722208163198
In       11.72727528309226   17.59466599937795    3.17890255588611
In       14.42541013562776   20.25764185632606    3.20880149227534
In       13.83904367422235   16.47320054052739    5.79092300442801
In       13.52829301457263   19.83011773782747    6.97475556412701
P        14.30897515754326   17.66471736156087    7.92917304989863
P        14.55186423733635   21.43473777843439    5.35980097130468
P        16.95779361167040   20.12940526020735    8.17011297894316
P        14.94511992741244   18.06396709039675    4.22775751220428
In       11.87226643235458   18.13513877645009   10.66958987665976
In       14.51716329279912   20.53295280646171   10.64420514196861
In       14.64370249609710   16.94255525261437   12.30844095461849
In       12.97535773883273   20.58477040517589   13.91953215910737
P        14.19650874228742   18.44393353791984   14.21149303049080
P        14.30927190967328   22.16149906450796   12.49258571522746
P        16.72054392005217   20.20557784981763   15.02065486580619
P        15.77012122927479   18.39717101038261   10.59958210559751
In       11.85946342283962   17.12398291476704   17.34764580659665
In       14.25122693011477   19.70786968217886   17.55374528964013
In       14.25674246740645   16.22877050429923   19.49028078070224
In       11.62032741132270   19.47021108283375   20.24073515718440
P        12.46788388835429   17.23710353568942   20.85476078113854
P        12.82933531229568   21.22320013130502   18.90688082092371
P        15.47280427179107   19.38631973832693   20.70735110843069
P        15.38760559971138   17.50767778193087   17.68112490621039
In       16.06437430025361   22.19731299122677    7.17065023959021
P        14.61406885924212   23.88524475258331    8.15105318936228
In       12.53011910401863   23.59297106659957   11.54711187653996
In       15.16223171843122   25.87744342815925   13.53793358167313
In       16.05745200245115   22.47288355818550   14.24942809222191
In       12.22110513733717   23.55657822018665   15.24621676783034
P        14.46414099329893   23.07940009277730   16.04418293640796
P        17.12950986408405   24.46270217786114   13.06573264401301
In       11.36165934187513   23.16728086522644   19.06771250126125
In       14.87195248277095   21.71631628720471   20.25432490714008
P        16.43511043934991   22.27180501699016   18.42375053952243
In       19.13402016661927    3.53659677555551   13.60828074185545
In       16.17503150219074    5.15476104954197   15.21100824651606
P        16.60980069498488    3.61765027353228   17.08975459435378
P        18.02808704182823    5.72727270720222   13.61480122751573
P        20.97448326234342    6.05781073033414   15.97738147452333
P        17.50571962329373    5.24627321178331   19.73572829587872
In       17.86587418140079    7.30898768899507    4.53327509133163
In       20.84171594047091   10.16971990766699    4.26969431946619
In       20.70780597059137    7.69346344806318    7.34235432716652
In       17.29318366754184   10.63460745346314    6.62339431631783
P        18.76476980040975    9.04840420370621    7.81629830661752
P        18.83274961026887   11.49814839525128    4.83206854181455
P        21.45679215675937   11.59753002877094    7.68834327239232
P        22.19532107039152    8.68699442213737    5.67296159824421
In       18.43615405793478    6.80611956752458   11.41004108490512
In       21.56133559186335    9.76444249977769   10.97197288431874
In       19.47228834254489    7.48800637428989   14.67426721329399
In       18.63148939262288   10.83553432765237   13.60134202452174
P        18.80225730702455    9.60468157169973   15.73319974327468
P        20.32789180204885   11.67663263530081   11.95484685548567
P        21.41407070472388   11.88509530656037   15.66492009161883
P        21.01179798550926    8.21975764840464   12.83192530968768
In       18.15356454596522    6.90060088645992   18.07430683247805
In       21.08216193369863    9.02209190734454   18.77698024715362
In       18.27489509304597    6.69572414814657   21.55932136251655
In       17.86359064795138   10.20961700861113   20.31975834215626
P        17.36909831402235    8.83980447351255   22.32223760686993
P        19.60861094367292   11.00011555384293   18.65952123277873
P        19.98549356925240   11.22028896314058   22.78409257397707
P        20.33380204039644    7.59129115099812   20.57910302536100
In       17.33384240639082   11.31674180239781    2.86821242130506
In       19.93388543018662   14.01970131682185    2.67072317211044
In       19.94970616256393   13.08741967112120    6.42122638402797
In       16.55274006137560   13.53935696540679    5.64159314509167
P        17.94430994385225   13.85949345886703    7.67501665220392
P        17.91998974904697   14.71022002287338    3.92513505715647
P        20.54931092073161   16.38126131169661    7.62046929482562
P        21.39431734979843   14.07192954945411    4.64203865439042
In       18.70315657481066   11.59859646091072   10.07942845645135
In       21.17289839458876   14.12258580859293    9.97966878980617
In       21.18973426684600   13.30214211651909   13.64557559600681
In       17.60658389719487   13.83712847740559   12.31696014231906
P        18.92342757696031   14.00826594131069   14.40729963127067
P        18.98892094512932   15.05681646368541   10.63356135164683
P        21.30967293273059   16.32461802990485   14.80351408872974
P        22.70088288127624   14.31857646894557   11.90897094222786
In       18.25922884976570   12.71387209429081   17.50021411365989
In       21.20840233855209   14.41379996870481   17.90777637357186
In       20.44932488573619   12.30896799042162   20.64361539762301
In       17.78934904125983   15.50516751373943   19.41476340925851
P        19.48489336000364   14.55669765315925   20.92608243052794
P        19.31438028323532   15.95990885326247   17.43522652741645
P        22.14175994810300   16.67873803772748   20.54033025983911
P        22.54288479681102   12.94947017621012   19.41575201233607
In       16.85447963822511   16.84088029441709    3.20583748388042
In       19.14342563983442   16.16841655985590    5.58992176142676
In       16.52464267182765   19.02960777157458    5.96734439154690
P        17.01975144299915   16.72456224392615    6.73769602425956
P        18.05033790925726   20.32645311507912    4.57472268163131
P        21.50856276864609   19.95454187054980    6.97476074080129
P        20.34430648457242   17.57697198866959    3.99981912844588
In       17.84205266750846   17.16003317200333    9.99635440235236
In       19.95530400012668   19.85467003284840   10.55785728961817
In       20.07613280151302   16.21301235517868   12.62019699613435
In       16.87519794519445   19.25147071313544   12.72212669811981
P        17.83524675630867   17.04049316585950   13.28308013829567
P        17.95781393079083   21.06571890091343   11.40070372681000
P        19.89317348077711   19.49597749098052   14.18029164872032
P        21.26057534366485   17.81265414486191   11.11811149903775
In       17.18641200834121   16.53840727770926   16.29008537644265
In       21.26799162677889   20.73428384747130   18.26052316481885
In       20.41047295235157   17.58139666796345   19.02365942054048
In       17.16201944502957   18.71930811312821   19.02401003354796
P        18.84079878959972   18.30006587316466   20.79914587931923
P        18.85361263410219   20.24502066118032   17.93441402549524
P        21.46749399495705   18.62995653649533   16.98768527741695
P        19.80367586870329   23.30199886112747    7.97148867263261
In       16.92648999840358   23.25684029508025   10.90039072746458
In       19.02815265698663   21.73901012701934   13.60891446580604
In       18.80088119843651   24.97166779921622   14.82699308174571
P        18.90412393839441   22.77670827026924   15.88217496952478
P        19.92210459010769   23.50761531026563   12.13252186494730
In       18.26237956100707   21.62267471625352   19.93471292429583
In       23.39850301948315   10.28506691255969    7.08615292488496
In       22.13899649610465    6.12677606204735   12.25158104642835
In       25.15031836151760    8.95820036594219   12.38596512935562
In       22.07704151478256    9.88974166296474   14.38230708604889
P        23.53368299252418    8.52913327794192   15.79880187640333
P        23.91170341714182   10.97290718138583   13.03675610070653
In       22.46613559185857   15.52909719564096    6.33218039837540
P        24.17023877941674   14.24415102334306    7.49180748936125
In       24.23922184927448   12.53706133241871   11.14143344629984
In       26.53962571918731   15.86644911271040   11.31434179412216
In       24.84935301787256   12.47119894314027   14.77840270781901
In       23.37909951790587   16.18381670268744   13.41662376924755
P        25.02860762777823   14.89084567828791   14.72859142126814
P        24.77369957062467   17.51229181514880   11.78632989252587
In       24.22565974932257   11.31414588054056   18.75258776812872
In       23.83005445089846   14.94186273345058   20.19873642285020
P        24.49098028758728   15.03773917256105   17.83101037105519
P        24.94229914940656   22.01798260307670    8.85258617260843
In       23.30611106273273   17.42795283594769    9.79989792682686
In       25.79533372281640   19.15944639562892   13.33485779272931
In       22.08930859710943   19.08178472264802   13.14241409701348
P        23.88980439270004   19.11036513133907   14.85445978879127
P        23.21285237037944   20.51974936300213   11.47149190343386
In       23.44140746929503   17.23175605099902   17.55370875795221
In       22.10095130188193   22.67814460440763   11.41072378307417
