274
 energy: -20.170381046771 gnorm: 0.000786835667 xtb: 6.4.1 (afa7bdf)
In        5.57161040920709    5.74739924759814   10.92439810561247
P         6.54698698073863    3.55860333633379   11.50563763349567
In        6.45564660874994    3.95068988455570   16.98262030340869
P         6.28050641282644    3.78527092036668   14.55199816878821
In        6.01974868880600   12.44037714481619    4.50412762062443
In        6.42710415046017   16.93312591331617    4.21343055968398
P         7.10410384196893   14.63700030520630    4.84731531104050
P         6.59258755100678   10.15133276057909    5.13868271659127
In        5.53224211765923   10.30910919911871   10.33296346832689
In        5.79699576910446   14.90455649044471   10.09798834836068
In        3.83735585683730   12.80583185481717    7.72322759836704
P         4.66575893907981   10.53405434607705    8.04307154600042
P         5.15764030601812   14.89267795388395    7.69944418199118
P         6.52642586961696   12.58209736950218   10.70525163334452
P         6.45613014314964    8.07726259901804   11.03164500023301
In        5.19643582837086    5.97837791309851   14.34297146354795
In        6.19352584268238    8.42645502379019   16.42321736636293
In        5.95873086392330   12.97444909869442   16.06098812913627
In        4.97684948939345   10.46696193701255   13.87315244778862
P         6.11707045293595    8.25531146343017   13.93445661782119
P         5.91032687694137   12.75990553060537   13.57390740267415
P         7.03989650815929   10.77264537341206   16.52986589453534
P         7.32973889049559    6.25162701089540   16.85957730677422
In        6.30172075953939   15.78727638570881   21.40318115151792
P         4.81159814780369   11.08837872209262   19.31017702323848
P         5.42528992157542   15.56035052965806   19.14948719136149
P         7.29278521704694   13.67681935742357   22.19183682568309
In        6.82624475517329   21.45361078898604    4.03262023911671
In        6.80796994446646   25.82170286165262    4.12672798894131
P         7.88761842049925   23.65457209704587    4.41194372343053
P         7.48995914840565   19.13564812439499    4.59722527388577
In        4.23646652039173   17.16554753221577    7.41250481787753
In        6.08292061469872   19.41794054500209    9.79419673409492
In        6.20772101787307   23.91058263595551    9.67801339082057
In        4.49390663085346   21.49412593703723    7.11606222006969
P         5.52697822479691   19.27164737113315    7.38070731952439
P         5.59091765409257   23.65759729865934    7.31849268951678
P         7.08263451302014   21.65428005752695   10.25764075870522
P         6.84935665971960   17.14090518880681   10.48837414289216
In        4.74290305916581   14.96182353412582   13.54336328899348
In        6.09231972320200   17.48994241003106   15.73310970139728
In        6.01041415272935   22.00509691032015   15.44042091982896
In        4.23313622445620   19.38567397456211   13.11196551762698
P         5.54656821298397   17.30072086408102   13.31683947401358
P         5.21301460421014   21.61812638296832   13.15109885212859
P         7.00045536621960   19.79673357454411   16.02614801510605
P         7.01421910104663   15.23048103771294   16.25367961743646
In        6.47136513033471   20.07568618307899   21.18531596323258
P         5.53872462138473   19.98829725216557   18.94598092832099
P         7.56977964779305   22.23419636683442   21.62284551818745
P         7.55463936879793   17.90950652810654   21.75589396056271
P         7.22367218000985   26.11809421268394   10.07504261480225
P         6.93903925012074   24.26136663537306   15.78713529253108
In        9.48838550098673    7.29019954947033    5.41677124296996
In        8.98482827555556    5.75661045235966   11.16726834118626
In        7.13243314772647    3.31822170159678    9.14035540424707
P         8.11933260328775    5.56490313165028    8.85336688055640
P        10.15084093372709    3.65082502198531   11.74196176283662
In       10.40596312686365    4.25469934505165   17.17908522091025
In        9.37131871556346    1.62568737954030   14.71639770731704
P        10.04097888458066    3.97779108950999   14.73432523649633
P        11.92302754352452    2.38082510701370   17.65736336795352
P         8.74818002264873    6.43925464701383   20.22555677023605
In        7.75995540960142    9.82982056532122    3.01143068637138
In        9.34899266768232   12.06288621017936    5.01669287711308
In        9.71396178790296   16.68871771143206    4.82248767340334
In        8.28087952183587   14.41682062481350    2.66626085492112
P         8.86716963698300   11.99843502921869    2.59348200928200
P         9.45864473039019   16.59050881282418    2.36461436991156
P        10.37922531244138   14.32826946724147    5.29819211802726
P        10.03274747812934    9.68276584270153    5.35063767220956
In        7.08252958350754    7.82472470196750    8.63408107400006
In        8.89128003542325   10.18799495420817   10.63400757430531
In        9.11906393425460   14.72793181909360   10.34011914338330
In        7.31976193731828   12.41854563732981    8.35585448595982
P         8.12887367361052   10.05942112841324    8.27804069636805
P         8.44292475357439   14.60925019547541    7.95374471910865
P         9.87131336271090   12.45153467711818   11.01102258246682
P         9.92008085388694    8.05817592060974   11.43327277525760
In        8.68246634262107    6.08028258120422   14.79645680889339
In        9.55991938334458    8.64811140749221   16.75587156295519
In        9.39995072716500   13.04440028292162   16.32895701156742
In        8.29169643959073   10.58284278961832   14.39878353071262
P         9.49464962939264    8.38922495883092   14.27777164533849
P         9.26829742147236   12.81867832306697   13.84774927994807
P        10.58372428333237   10.90764349900488   16.82619545053657
P        10.89740284481231    6.66687693634126   17.40326770452663
In        7.84087247726491    8.66850661849378   20.20123644991434
In        9.83687128183900   11.13313888009485   22.00392601105420
In        9.98237740922814   15.64073293672923   21.47861975285641
In        7.96043876732424   13.19518642854000   19.88249597074007
P         8.85200546795175   10.87148590973696   19.73134336123892
P         8.93794204021288   15.39507525318660   19.23484011232366
P        10.89393360410623   13.39128229497277   22.07230581473084
P        10.69152586649447    8.89941869532846   22.59021150743758
In        8.72163001218162   18.96695090507953    2.44247972096444
In       10.12556535696615   21.26284842292625    4.62676920384756
In       10.68519872990540   25.87908110157078    4.26843385584386
In        9.11831927585095   23.47674735794175    2.25585700529631
P         9.92122032864745   21.12766867455440    2.16523395237111
P        10.26488374932959   25.61283050514749    1.87234787314948
P        11.17549802419754   23.51344483318124    4.87763088474138
P        10.82143383108810   18.91116149966253    5.08940640161914
In        7.75516563461327   16.99190248145935    8.18215833011707
In        9.42332062155601   19.28448427818290   10.10826237023916
In        9.66472427563723   23.90279501087018    9.87985853590091
In        8.06675304944417   21.57619293014271    7.98276787631479
P         8.79289620988991   19.20616751337803    7.70847785471762
P         9.01845686877827   23.82818885188141    7.48710183764825
P        10.34327623749517   21.57886859864972   10.47028072511579
P        10.13181896260744   16.97489174839937   10.73231876914915
In        8.07020909387333   15.02083913311407   14.02294051799924
In        9.48489679402575   17.55636393967416   15.78085994081856
In        9.44948402219287   22.19343407014714   15.49408162595650
In        7.83075465075580   19.69249190198927   13.69672565065787
P         8.68930871801413   17.36605540497002   13.43954842824298
P         8.59696528313589   22.00535986310362   13.17290691252775
P        10.29963013044951   19.90352577480842   16.02295605138139
P        10.42141614829312   15.31822340295408   16.36398798915436
In        8.11120286403076   17.73914054181233   19.34420386461779
In       10.08933725658488   20.04331746264861   21.14570128616813
In       10.27575612073117   24.67985751599304   20.93961584394523
In        8.23680746334381   22.33441134978942   19.26616606857988
P         9.03812606151034   20.00516507675819   18.89441474126844
P         9.04749856044577   24.64744484747561   18.79787857745776
P        10.99568015893666   22.34960122211715   21.28026090649072
P        11.17210805268048   17.83993054553519   21.60921562138336
P        11.48818056724743   28.14096693397277    4.72319815835798
In        8.24638012255644   26.17055015875356    7.84296150419624
In       10.16704266953974   28.60669221641471    9.97749134808655
P         9.34016894220284   28.37190193449065    7.70664503522111
P        10.58997813428279   26.19119597467529   10.19819057496998
In        7.75110223297386   24.32918534887007   13.47515468329958
In        9.68208186196933   26.82223144413394   15.22793184339566
P         8.72996088852788   26.53985873782177   13.00198213766988
P        10.32070217093766   24.50910340084529   15.80783741418178
In        6.89192425008063   25.73441124133825   19.17010583762087
In       14.86810756612225    9.01012623599975    4.07055881010312
In       12.45811393890916    5.99451542566379   11.50365841243613
In       10.67259788543849    3.36781611022839    9.36921318846620
P        11.76493241893815    5.57152879685448    9.14791372662234
P        13.58911290596132    3.85004700753763   11.81908100608078
In       13.95930336329183    5.04649858211763   17.40937323333865
In       13.17655190704505    2.02954437805653   15.60757861715377
P        13.04822813126080    4.44932434464300   15.17754882251292
P        16.06474170255023    3.83472731178674   17.04155722403270
P        13.18196127058027    6.53482710246285   20.38755803487770
In       11.21674259999064    9.67699295210429    3.17339924757849
In       12.60313938125459   11.76677652034972    5.52222015505155
In       13.02005947940755   16.40172520904453    5.33669294918092
In       11.65119051548786   14.22271481650444    3.16412545132466
P        12.36489895497057   11.85127617217530    3.06196853134889
P        12.92795271840887   16.35518436012316    2.86628824510690
P        13.60675038913013   14.03050643687515    5.82201249657450
P        13.42728858404270    9.47678103841649    5.93929156159385
In       10.59121774403932    7.75676897168797    9.05368620734547
In       12.37716389133642   10.22181500137919   10.92171527804598
In       12.51275757883343   14.43508193720238   10.60349677663637
In       10.60686440899052   12.20862811616158    8.64876731742942
P        11.63361018399903    9.95510166085182    8.57081338035558
P        11.78267179304609   14.35360003100810    8.24030498538537
P        13.68418309574251   12.33066527210154   11.19999083528426
P        13.59771550829692    8.22348871233059   11.79305938989823
In       12.10838792202870    6.75688877523212   15.25082356173342
In       13.59755531186675    9.44940710315813   16.94612915707235
In       12.90745220999009   13.24471832277152   16.38970426906484
In       11.68455728953010   10.77918971604766   14.60460385688586
P        13.28771783502882    8.85505592678883   14.53687190104752
P        12.73684475009515   12.94800910136854   13.92983297228336
P        14.64852607145590   11.71896420877318   17.30994768116418
P        14.86867484961009    7.35436574900670   17.35328365984667
In       11.64497756999585    8.42001019267995   20.38669582628837
In       13.16358665229586   10.96926030069214   21.90402354491217
In       13.42509271652024   15.24848759921108   21.13738895895727
In       11.29092407627903   13.09654448095358   19.64723759111983
P        12.10234705482178   10.74864618495509   19.66024111626583
P        12.23195638862662   15.30289524466495   18.95813566572529
P        14.34474388022725   12.94880029934437   20.99905007756524
P        14.52596302882465    8.99616426170825   22.42681750894453
In       12.14145831207712   18.73294046269784    2.98638985726125
In       13.46403405206972   21.04807513903441    5.20111622107187
In       14.13262925735744   25.68741318515512    4.97245202799468
In       12.54212766815948   23.22116390013064    2.81919408248072
P        13.41825640344646   20.87798581635965    2.73475801815198
P        13.64712508694593   25.40661259873692    2.59153847470055
P        14.41429508060084   23.30848757406901    5.62967441315678
P        13.97772276645283   18.66909785021823    5.73029710886112
In       11.08827063694441   16.72499660374109    8.46422471706082
In       12.74064475771680   19.00729302950456   10.41812071063012
In       13.03410611759651   23.62110243773781   10.16013551338598
In       11.39761777584700   21.34934252105268    8.24408029186165
P        12.06994881615263   18.96618613842386    8.03595049754912
P        12.34617250048421   23.59923844400987    7.78392712250274
P        13.75615379937094   21.27289838854542   10.57432433533438
P        13.53699085099938   16.69474746427452   10.82736501958065
In       11.42535285401440   15.08799707134079   14.10577987192897
In       12.80406643328032   17.78195007112536   15.74662203885129
In       12.77434604300668   22.18241711295479   15.48047588760950
In       11.09914871312700   19.75848904232479   13.68187149307261
P        11.93735740503186   17.42878626386657   13.44914355078883
P        11.93832232903214   22.02981817148369   13.15534571933361
P        13.86951068388855   20.00139286343808   15.90930763920004
P        13.77808348985896   15.56920919537360   16.28435164445782
In       11.48313098195059   17.67295078575353   19.15507564597752
In       13.54319396197467   19.94250535556770   20.71535108639878
In       14.15998846709384   24.04465180443766   20.57905600828203
In       11.48348464464230   22.29719420831699   18.85867177813571
P        12.30163338280803   19.95916046573772   18.57176474547440
P        12.67631717039938   24.47816094303252   18.65605137236989
P        15.08208465537737   21.83948374787945   21.12967938122041
P        14.24689471516066   17.56194600452510   20.80389031228335
P        16.32605370982066   26.67942319852395    5.29447911060643
In       11.64232048262077   25.97453012354549    7.96587943514092
In       14.08712757185288   27.88737127461865    9.82827515298345
P        13.00043105371339   28.00273406978361    7.66669351834363
P        14.55951731362999   25.56085279559574   10.44921912537500
In       11.19106455832883   24.37908967096475   13.48742966900626
In       13.43254143196996   26.73130186407875   15.01832251285671
P        12.27986522905900   26.50235924964300   12.88782531444713
P        13.84837057418446   24.40489205189416   15.74371907931586
In       12.24687296553833   26.88183269690425   18.68306991974154
In       17.30664053501743    5.75449175340666    9.78670626824260
P        14.94216570124591    5.53036037305709    9.27580034512069
In       16.49398041728939    4.26381469231329   14.69661494929476
P        15.27395723295174    6.10065157221488   13.64750507042969
In       18.14280570284443   11.46952941001061    5.97595489143218
In       18.04581689498413   16.00570625230545    5.52104545307259
In       15.01129341192412   13.84653884108574    3.79348989267475
P        16.00940532839172   16.06658905350619    4.20305196114567
In       14.09738990900829    7.82887739613751    9.37755723278324
In       17.02609746862980    9.57278475341222   10.13993952837358
In       17.29261765957618   13.71019973050512    9.79275864970535
In       14.46746873719576   11.89849919139872    8.89106310782942
P        15.38091282275790    9.65880581239669    8.30474610431581
P        15.57649045082442   13.95186984679440    8.03690631840460
P        17.02061348290342   11.75390295903846   11.24450279331705
P        17.47670401927591    7.53496570091134   11.42925343881290
In       16.14454798299099    7.76238932477874   15.26289172788653
In       18.50710041836307   10.45636933549655   14.55793045447898
In       17.44825952190775   14.21779792636499   15.27086970910502
In       15.35147297845407   11.45968727608581   14.92008356872736
P        16.39061217467113    9.60917957783400   13.58652377889295
P        15.78774041891846   13.51328649286297   13.56544546844518
P        18.24081266518427   12.13194187950294   16.31148533829829
In       16.07897000365886    9.02130658944403   20.56855194583538
In       16.53311339917282   12.64017797490784   19.87714735990522
P        16.95963103440128   10.44658087086050   18.80903241982436
P        15.91404206431263   14.68437911553015   18.64560370879487
In       15.35837567731995   18.40117120545747    3.67682687281268
In       18.48981246350776   20.30760195693138    5.19543215414213
In       15.94516159247551   23.03248282912252    3.70984569462752
P        16.41863347592620   20.62419018159191    3.96740805481312
In       14.63681350690979   16.17306341626534    8.66774231360336
In       17.42441030282268   17.61218157645808    9.88009547944311
In       18.15178588032195   21.59317425698352    9.54077670480339
In       14.98929069423082   20.56353533284670    8.52766811643169
P        15.84997423353622   18.26021725525313    8.07731600209547
P        16.49818487738876   22.44497362757768    7.92410324801894
P        17.37994509594093   19.80406895031534   11.00643739218352
P        16.87196838894662   15.62861520846429   11.26004766264663
In       14.71679200779930   15.73036664747275   13.99358225937532
In       17.47119362269805   18.13141248981729   14.50611145047185
In       17.75333481700069   22.37926039459353   14.08687446733329
In       14.79041481142881   19.96685118351129   13.62405626681764
P        15.66234866677784   17.75538758013786   12.83688007414776
P        15.85060229781683   21.98378256237163   12.56291640499553
P        17.52520155799565   20.39462902533894   15.46658796248724
P        16.91626323358661   16.43785391599278   16.22499433262458
In       16.33883862019805   16.89485122844342   19.67306743579309
In       16.49939013731544   20.91465737785722   19.32090189083825
P        16.64592093317943   18.77298451853166   18.10763381064126
P        15.50883984529894   22.44722103043967   17.71665219690837
In       16.09780370198558   24.73676005940370    8.71952540578748
In       14.71488539570451   24.00630420703082   13.46271124130779
