76
 energy: -5.089046434725 gnorm: 0.000742043257 xtb: 6.4.1 (afa7bdf)
P         9.47041718944395    8.12400339607508    2.98287717993803
In       10.36896783122140    5.90838987488384    7.52626518642333
P         9.06030967763079    6.11604091016133    5.48739743010842
P         9.40476639710168    7.89614860322436    8.60934123914365
In        6.84851335369098    5.59512036333200   12.71825474381952
P         8.00670339504290    6.42698206837876   10.73442486388111
P         7.29082858470999    7.74360338618338   13.79533828977872
In       10.40806429654304   11.55328131799440    3.66596247798175
In        9.97623423270119    9.57619034535915    1.10109147658491
In        6.93535221275765   11.43294570338875    2.73724509731729
P         8.44599624976138   11.47688419562312    0.82557487232301
P         8.25334999747920   12.45729151295591    4.57248808972400
P        10.47706890762835   13.46470993133787    2.11900612010134
P        12.01444716789917   10.41472459833635    2.18640757891346
In        7.21425342137592    7.49316892189642    6.27950814610111
In       10.13254683647767   11.96696887365951    8.34152437513105
In       10.19746540770756    9.14689090656459    6.61764603132642
In        6.72573216439336   11.17304589762570    7.44979868496265
P         7.92767070178636    9.80715765795412    5.76698524746152
P         7.85546058786209   12.57271392985855    9.15831354183277
P        10.04288985087960   13.75972463910712    6.59707737972598
P        11.82322526222963   11.00295383972529    6.83300153691517
In        6.31592731949564    8.15959103032471   10.33838532851902
In        9.50919824824516   12.18557277320925   12.86325838032357
In        9.13805747631388    8.77050544457482   12.51897047661141
In        6.44979267971318   11.30966137256658   12.24819455725090
P         7.91186050445861   10.00592615557065   10.73477481492224
P         7.38725610901144   12.71138569211952   14.06461858248028
P         9.47486328413393   13.99690471891746   11.16620614334003
P        10.68434505243473   10.22752796389710   13.78256456924486
In        5.79837906921654   10.14945407215893   16.50850103880371
In       12.28838943484076   11.20802741852737   17.62312106577989
In        9.00447340888505    8.21532858361715   16.78778422962553
In        9.01950087879064   11.87190950833678   17.03180702206230
P         8.05455801998682   10.13307648652517   15.51796038616144
P        10.58858027208589   12.57760836333031   18.82184910352327
P        12.48488135965340   12.32494355030582   15.44545991793269
P        11.13497857128921    9.05250967230420   17.57771060930896
In        8.04765395752943   14.75471163378796    3.69037691899405
In       13.19552945223554   16.34088159553636    0.96859400513016
In       11.95126067765423   14.78382171817658    3.57471845681017
In        9.96490446841462   17.61825422891117    2.63926952790013
P         9.99293311136870   16.01696643565676    4.53299549168030
P        10.74870700630662   16.28918208147241    0.75075611463764
P        13.79559904313061   17.90283864798612    2.72463604617028
P        13.92954590102515   14.33741385989101    2.18115836853548
In        7.71869285395585   14.90860077197818    8.33032084822551
In       13.75286735507987   16.25666434714542    6.34349580977597
In       11.59280770941369   14.73028963253883    8.30340776364011
In       10.17734639628413   17.88107783597437    7.44695238171269
P         9.71672999606331   16.13787300065243    9.15758261873169
P        11.92419787583204   17.84570130297163    5.69061689304654
P        14.63022156330102   17.25713987628291    8.43114389091131
P        13.27114430004015   13.85547438951617    6.72486168802924
In        6.97893941469040   15.02699389028817   13.30249514056299
In       13.41688869500724   16.02227339347852   11.44288024291502
In       10.66432871753875   15.23624347714893   12.95939825275464
In        9.90817890303961   18.26480472307995   11.76876359408292
P         8.73328472953650   16.75634381854125   13.33027282175148
P        11.92147369073208   17.75488693260689   10.40817076346242
P        14.52325449990903   16.98142342308214   13.46427862300312
P        12.89181218273402   14.16665686583466   13.00186439558745
In        9.19630062832078   14.60966463813347   19.06058612211121
In       13.85620039450654   16.71888362670549   17.19226544101839
In       11.12967673415934   14.23843820523634   16.21195008247812
In       10.31054320741532   17.46815766265880   16.97319994651865
P         8.99764785676057   15.39394668670715   16.73535321736229
P        12.24157669080410   17.32959508980207   15.42421632474395
P        12.51087117744303   14.90892830083644   18.11133865981456
In       13.49760113660121   19.62674019092391    6.38568690254829
In       16.81221647218284   17.31300835660909    7.30197241709851
P        15.77021983376643   18.94974681124067    5.83463064574758
In       13.54201566063649   19.49948495060367   11.07952081652650
In       16.62472717522015   16.84989154604063   12.21567547347887
P        15.83849093599095   18.72972985431917   10.88968934791068
In       12.38750475607026   19.73109144701180   14.96476812873347
