284
 energy: -20.257286675356 gnorm: 0.000125184102 xtb: 6.4.1 (afa7bdf)
P        11.37085548352161    7.33027273811773   10.92193054155101
In       10.76715595803216    9.92259189923312    3.27424747591192
P        10.98074466798268   12.34419894867031    3.83577997791715
P        12.70680281648856    8.54102216503097    3.86003213572507
In       11.57146021845410   11.40356795845534    7.14688229609380
In       10.44039621401859    7.84116261384903    7.25001976144265
In        7.86378103659921   10.73830512267759    7.99941251416156
P         9.29093836036511   11.46082291050503    6.16216656948933
P        12.26717819640591   13.60832635055663    8.13175576932360
P        11.35660021255085    9.51658645030093    8.77021625685279
In       12.79012777985872   12.10700638870525   11.58642462070329
In       10.91660619054289    9.11127718251936   12.56032690998311
In        8.98457094828794   12.06530407557570   12.04708776873463
P         8.68616583030982    9.93675003883047   13.17465977827167
P        10.68776082529070   12.77337522524229   10.40585122944011
P        14.47049995864725   13.89810938495733   12.03965594348918
P        12.69815440022378   10.55127046451627   13.55384455677663
In       12.57220929652333   11.03562272002540   16.85239810774655
In       11.32400606279317    7.46243880858242   17.68594577108583
In        9.10181065118629   12.90058747326704   16.83282450642617
P        10.78780963185811   11.93539164379063   15.36773254179031
P        14.50189881059097   12.61234065464886   16.88286393542854
P        12.20073442131199    8.78569297420361   15.83489304961092
In       11.02430624471027   11.95930037062998   20.48903088679952
P        13.02272768387791   12.65906872885563   21.65593725659094
In       14.51642920188555   16.23766350957222    1.54018525500940
In       11.75037192192757   13.41044745851640    1.70481867691221
P        11.23027760673095   11.70614408198213    0.06260079216581
P        12.71832335893826   16.81193813908871    3.07126407823483
P        15.87282178290608   17.69645487361106    3.04208152476195
P        14.18011824013993   13.77345380747679    1.36568913207607
In        9.27262905646966   13.91635385183076    6.44289722745695
In       14.91215824807858   17.42022156454671    6.99686187970658
In       13.16470093049446   14.50068688728515    5.98234920102954
In       10.85488350349128   17.26153887480620    6.26064717556861
P        10.92735200704114   15.10778583529846    5.04847565514569
P        12.67406032620672   18.37306994727676    7.49965200238720
P        16.33577996454746   18.84997346796633    8.47374267046636
P        15.17678496359422   15.73468122237355    5.18085477430012
In       10.70870866598101   15.21112108123830   10.82735274530253
In       16.37777217243667   17.02772103970695   12.60265921071103
In       14.89432493575223   15.31448451257806   10.05181234442153
In       13.08411105961502   18.28730738253780   11.19761762947035
P        12.63893814796138   16.31991310064347    9.76504847047301
P        14.63046504754982   18.72974501227594   13.06536919020183
P        18.87856942370970   17.10648582352123   12.82714942286604
P        17.05754647074653   16.58412008241388   10.22473633383123
In       11.90098083547759   13.99105859510069   14.59558915229353
In       16.09845033471785   17.23236544202524   16.38542319404277
In       15.10049704606583   14.42199862573164   15.26175552885429
In       12.42271437622792   17.49322068837134   15.81789459502931
P        13.38937358075704   15.92202046174364   14.17779994858332
P        14.01928666503894   17.71054377916863   17.68383480860160
P        18.09452410985131   17.62504385247880   17.82790549485747
P        16.29919180539920   14.95254580974331   17.39980303352970
In       14.79926119154553   17.10663042819266   21.97772154239935
In       14.21958375079626   14.36498482413907   20.30324895834321
In       11.19159910232824   15.98677034064110   19.49295639327013
P        12.75624629374382   14.53778554025712   18.31414581893847
P        12.45114412020842   17.05760377106145   21.26506329901704
P        16.20143982595266   17.61790366864384   19.96445324946546
P        15.92740533612611   14.88493547915780   22.05737464324023
In       16.30093339853995   19.47280596790896    1.37755169894341
P        17.66844100346859   20.49019477881793    3.16091178736968
In       12.96576532390035   20.19126983261003    5.86011890404235
In       19.33222066403512   22.53624031739295    5.62174718842672
In       16.06195716915881   20.90522242504765    7.10281298915278
In       15.01681275770264   22.77964061228259    3.99507557930277
P        15.18564764619034   20.47331441087167    4.80057089725859
P        18.33780352521153   21.76702437275317    7.70293833153923
In       15.61524930640288   20.89125535292401   12.39257174992144
In       18.54301408783655   22.42243897970039   13.32357175540649
In       18.37778851657570   19.36266420905896   11.76876667282002
In       16.86368554424124   23.56168588431857   10.25396554737303
P        17.14307882344320   21.10636784366433   10.43862963427746
P        16.86081650757288   24.07258624405569   12.62468581907899
P        20.17591970869139   22.14276187369629   11.50836513562851
P        18.92424559101453   20.07797336376841   14.10220323806308
In       14.54783934049562   20.10351332883303   17.33068643130912
In       20.19913268958067   23.60325218409172   17.05759175280740
In       18.40076794699107   20.07370789954479   17.44061897421548
In       16.32563813596258   22.81768569460933   16.20219243658820
P        16.50777502536191   20.38243018092437   15.83758808207443
P        20.44770004466355   21.23257394437283   16.61712820363293
In       16.15760683316066   19.98211706028245   20.67999050922663
P        16.63018207618996    7.63064427998943    1.39210183780701
In       15.25813743341752    6.42780502523488    6.96859447169716
In       12.37247267524285    4.49564480370094    8.36378119025711
P        13.57538021626646    6.57139848597938    8.78856672177519
P        16.72712907746709    7.47856475331088    8.68941305682109
P        15.70984715094485    6.84423088486152    4.62321816296473
In       15.12506470839176    5.48219911681616   11.65184110745416
In       11.59272083516123    5.64199315766996   12.68198543773402
P        13.70012235247301    6.83389113660396   13.17841388890430
P        17.03411526087489    6.11772247359262   13.09569161915236
P        16.28404828034812    4.53882511710846    9.70656259815825
In       17.02800438193833    5.29936806980316   16.08807653762216
In       13.40692298940527    4.25612103379712   16.67600079903646
P        14.97179477213417    6.00945412879636   17.31042977026069
P        18.98762667688235    6.92668722933667   16.10413776438812
P        16.51484106592785    3.38099245931138   14.65855068158012
P        16.20877493593206    5.38428497944824   20.05485837208639
In       13.30460048582138    8.41058078329503    1.49255706510896
In       18.31186003857141   11.70846110486199    4.47271629153786
In       16.13741638812920    9.83736058482463    2.31413990281566
In       13.44102529822115   11.69485041574953    3.76072655378716
P        13.94778278812507   10.81613708575694    1.48503603655250
P        15.79596960150846   12.03517853678587    4.57238846470541
P        19.41939634899940   11.84489123038213    2.25947106602891
P        17.33168387607812    9.41342292301128    4.48765565906586
In       13.80257374670924    9.04531809412731    8.65662292600820
In       19.14680225002898   12.47540821508051    7.81001629899935
In       17.07249198224631    9.76139325490567    7.77201389242515
In       14.44474123020491   12.34046959506453    8.33330923328267
P        14.83494247902996   10.39205078677163    6.82566677064804
P        16.81319759759812   13.06883189974070    8.46550892622209
P        21.17779723474716   12.73614609190020    6.35444474007761
P        18.88897367978251   10.52523158246378    9.32578301417988
In       14.33458280747548    9.09629845577332   12.33023944963982
In       19.24397042896047   11.25657826214640   12.54757909356996
In       17.69282141345869    8.28372054793908   12.09396227671098
In       16.11386479610302   12.07376792402411   12.48826035955300
P        16.27263471247543   10.03517277912661   11.04597892032146
P        18.11205987926724   13.29426545207882   13.44571706082716
P        21.59645327575980   11.33112342342941   11.76027228336416
P        18.91444856447363    9.27013484188356   14.03965016656529
In       14.60193737355781    8.12597435276395   16.05615121882495
In       19.51071618999545   10.57932373791824   17.80118202181669
In       17.59309529975942    8.01286563070533   17.85552415274088
In       16.24810537388589   11.14302571704058   15.87306233267854
P        15.68027293658969    9.60523564359474   17.74604936923368
P        18.66877752673371   11.80680990803689   15.80136522344689
P        21.22783055111346   12.05904984863020   18.78970756878986
P        19.52621068337647    8.57202996920014   19.33614877420249
In       12.44318299440129    8.39142403981792   21.96697334845483
In       18.13912369459822   11.00078825274905   21.08765250539849
In       15.94354310357162    7.69441564760329   20.89982970390384
In       14.82715351468673   11.17066085737161   20.82304742919920
P        13.93438007357781    8.95118474682466   20.12888268124751
P        16.65185192370951   12.01824459784587   19.33586791267508
P        19.48961394380801   12.52811339672357   22.49601453820572
P        17.30014459667343    9.09060960465540   22.42426696818843
In       16.32554405733172   13.10633944973167    2.38168072330072
In       21.56614134456878   17.14465749292006    1.40764423803341
In       19.44252921935548   14.23294812821759    1.57027811116393
In       18.34097751601063   17.32650131099536    3.15652759151620
P        17.75564302046511   14.91423824506567    3.26378699236974
P        19.33615870354830   18.17037284787607    1.05068139839162
P        22.40084428814917   18.49698775476849    3.24443148033135
P        21.09737369229746   15.33422745967455    3.04238487993150
In       16.94269670115891   14.70747590512325    6.59758320595530
In       22.09323632009348   17.75586569171470    7.70523238272474
In       20.49544548504988   15.15541036202467    6.23874514450403
In       18.17130485739004   18.24874049027454    6.86056420111406
P        18.71747905620662   15.98731613936382    7.77879113131970
P        20.47176643431541   19.08826434896716    6.38615665027880
P        24.19232329595675   18.42102939767216    8.85967830545638
P        22.26863434296990   15.29183619198363    7.99895142556793
In       18.05148389566794   14.53767043004714   11.29775294526023
In       23.62768291664559   16.86616308461552   11.64170088938516
In       21.55430012419797   13.84820937782355   11.86924315798211
In       20.44708851479364   17.08769644185261   10.88716093796320
P        20.17725729464409   14.76457259102822   10.00463003428626
P        22.21936364232083   18.87774555565110   11.13010388224904
P        24.61562639649645   18.20885105258713   13.49474530767710
P        22.20148863042386   15.75353173092755   13.36026630469217
In       18.56199119476384   14.06363327996251   16.87387765329207
In       23.03009376832789   16.42863084155029   16.94509402428767
In       21.75438008778466   13.44865967818385   16.79157770198101
In       19.85124490699498   17.23532264966685   16.10741205272650
P        20.33172888578374   14.89982450237044   15.30878565248642
P        21.22531261120725   17.65625021708778   18.16910803547109
P        25.13416873144753   17.70347727293204   17.11841824049328
P        23.02419176710200   14.58975668010419   18.62974873500168
In       17.58469615953820   14.10764697984257   20.38961010343259
In       21.61687463622665   17.75399449157819   22.20234800608005
In       20.78626105389812   14.30305391050059   21.32480223449927
In       18.28032606782493   17.19025458046642   21.30170272339830
P        19.45690182484274   15.65796998739211   19.69491161560630
P        19.55028844192781   19.12344591904774   22.20059625995120
P        23.20166073201158   17.83006685499649   20.31370594026548
P        21.31884216777653   15.60035779225281   23.36714767506600
In       19.70984237665405   20.48602724352767    1.80244281581099
In       20.15932146103971   20.30197992754469    8.54038563852892
In       23.94723206537506   20.73460795326757    7.94225338603989
In       21.95601996416204   23.73814634544142    8.47324932194569
P        22.13935761426353   21.51277158368926    9.48102638381884
P        23.32510224086633   20.01456898839332    5.70566901798778
In       21.23496128588386   19.46713854363209   13.33665505369069
In       24.54042248034265   20.55960025439475   12.70295120685882
In       22.05327394298165   22.99794528604802   12.84930054650880
P        22.75520174955412   21.15983640614891   14.33881896037182
P        26.94774338061024   20.95156290504094   13.09353205882289
In       22.31268066945963   19.71353413412871   17.26041613435282
In       25.75837232849238   19.81016481836136   18.26596276431294
In       23.97170677426633   23.07241384822080   18.15163205975059
P        23.63898262522981   20.83541782699761   19.03733782881914
P        26.27165417382828   20.50249192558974   15.99262625470592
In       20.10600045553895   21.03657281781564   20.82930205213023
P        19.63667055585408    6.22636990598498    3.74336417006370
In       21.79452970434430    5.27434168001403    7.65585333855312
In       18.57842602860298    6.18860321708370    7.64175076287777
P        18.08885100245391    4.05446623572799    6.58637949112539
P        20.40714416963101    6.49748237123483    9.30542163045462
P        21.97852215431499    7.10252144781461    6.01893699386503
P        23.71746670188208    4.63257931558889    8.98642799787593
In       18.03065526653448    2.90650467489190   10.19366005972646
In       22.65108776645447    5.46785110133588   12.54266111421019
In       21.57676943045885    2.12258740804711   12.65460504500092
In       19.24356606680884    5.07893467702355   12.61386623262387
P        20.27491516209944    3.45758999084169   11.04457867851997
P        20.86753261014136    6.11151556282883   14.17379029756767
P        23.91249259416646    7.05872397437948   11.16623315222759
P        22.79847568294771    3.61632688923635   14.15354988936537
In       23.36659248033130    4.71556841092715   17.98252249199571
In       19.78597527301291    5.19214685931288   17.75370150405310
P        20.00556754268330    3.33137267950205   16.20619088474382
P        21.61580107596803    5.84102028984630   19.30577669275608
P        23.98589308511776    5.97159253134675   15.97221126671591
P        23.01493267477387    2.31621868050140   17.90992611048434
In       17.34922018744420    4.71025753370176   22.09828564057951
P        19.33057777896251    6.04468780928142   21.67109743987773
In       19.47755922197457    8.64064860524153    3.46202521708537
In       25.53755464614266   12.19687571681596    3.25143886940466
In       23.28340669594011    8.72296844953277    2.65425240943315
In       21.75375004227178   11.84903429791834    3.14227743352447
P        21.63488636283697    9.61827136415221    4.25856607769475
P        23.56993344868572   12.72977427356658    4.65932056716387
P        24.52920600478155   10.59250079371839    1.72815017872467
In       20.51997369663219    8.84146149915794    8.50002064850335
In       25.51006991810556   11.10466489328797    7.81352257622712
In       23.68194055139434    8.16211495886630    7.47376019232833
In       22.33278817432581   11.84599493294630    8.39543096345633
P        22.76017470703498    9.55325359037904    9.33200048128571
P        24.45641028602529   12.75100207449630    9.39327674955687
P        27.44273224564697   12.54645856104429    7.33228573337372
P        23.81388822119973   10.28807718256611    6.17796535730710
In       21.02283634051309    8.34216686852032   13.05841028717300
In       26.08086218178526   12.06625026120527   12.76199074393368
In       24.53314100262844    8.76909858539856   12.82276373422679
In       22.61981014942265   11.39083246187953   14.01918942888375
P        22.84682578120279    8.97583374751253   14.62976840669304
P        24.72897452882467   12.50418322766956   14.81872177623912
P        26.66630946269711   13.76556643102995   11.04648595140781
P        24.54828208347670   10.74670569684334   11.32221135305042
In       21.62588479193378    7.99908171257501   18.06187858590429
In       26.92005325294993   11.21537320988500   17.29521535517453
In       25.05650245641348    7.78867357372592   17.26119282601556
In       23.56967624435989   11.21224280592985   18.82090130904287
P        23.74947386580493    8.75995858292353   19.12829897024618
P        25.85678971349891   12.00373161097073   19.37247377258887
P        27.16876123925890   13.37627411248322   16.08808458349544
P        25.07964709504192   10.01147129719533   16.14599845294952
In       19.57835216954394    8.18963250456491   22.83936781516692
In       25.64472272453929   11.46378848342479   23.02105210820265
In       23.43236006728132    8.04190102250331   22.85715233080803
In       21.45430770299102   10.99740297640205   22.39659068549749
P        21.57174392297442    8.68102221762116   21.38186529451363
P        23.53316109963396   12.33776527108288   22.19125912917410
In       23.46164879371090   15.03136026420982    3.68812171476514
P        25.13250493896228   15.84158238723544    2.13359303553037
In       24.58769392942577   14.51212112534746    7.63240094873143
In       27.96655000601357   14.93288379122361    7.13513170607591
In       25.78934440583402   17.75944889908055    7.05593786543858
P        26.32342698058223   15.94389960705411    8.70407357322397
P        27.40428019779347   19.56391587863826    6.84234284420262
P        26.93844605496761   15.35667232112490    4.97928570351382
In       24.48045476786895   14.84760081371290   13.97048566542358
In       29.46362961410330   18.26850574297556   10.41702614549654
In       28.45870602112574   14.66556214799767   12.46133884164314
In       26.75704478788280   17.66398521016343   12.35023423146354
P        26.81172813274734   15.74791716941877   13.96627701125955
P        27.02679728946886   18.59153248415364   10.01818074673593
P        29.93706164501157   16.58937083574839   12.10972955672828
In       25.49266354374609   14.30366152574328   18.53332935921215
In       29.03678944342370   14.16300612730812   17.50254561426731
In       27.53994800288781   17.14149880873090   16.95974048203969
P        27.57947418836795   15.60665268282959   18.90254681127957
P        29.16793442571100   18.39751176671686   15.66798805537955
P        30.64608938886806   15.06739263649200   15.92699990261343
In       23.54978372525273   14.54083932010425   23.33886250939442
In       25.11201007533919   17.78762545496484   21.84623897131993
P        25.15231988393996   15.35572138326574   21.66560850053131
In       27.38394291384435   20.96249818347321   10.69398875224623
