90
 energy: -5.250833130901 gnorm: 0.000784021725 xtb: 6.4.1 (afa7bdf)
In        4.90496988265311    6.69550762080509   13.71892284375909
In        3.35994277487042    3.03849281355543   15.31312514951982
In        4.26680239976349    5.90501110500647   17.28575355039174
P         4.30339104737397    3.46587058512162   17.51856047256738
P         5.62448842387250    7.41668196353994   15.92746163299033
P         7.69067326990031    5.33784685821217   18.15302735239630
P         5.16667304056010    4.29000567265063   14.19456008330949
In        2.88866769172366   -0.29681763086000   19.25369994322868
In        6.57280504564748    1.69332945991619   19.40065256779879
In        6.51833139846878   -0.66524010511946   23.00986360390714
In        4.58984505448277    2.74890152060433   22.19693243293623
P         5.45803527271579    1.30396088038718   23.94429017473299
P         5.85069684399162    3.80179778982016   20.40748934779592
P         8.19667650769099    3.80635245870876   23.02056856039718
P         7.53713482585485   -0.09628923577421   20.82693465116692
In        2.25015087105835   -1.26743801078707   24.24264264720318
In        3.76263400227066    2.00137255201393   27.07962606436893
In        5.25181352178252    0.74483673879196   30.71722357534434
P         3.92606348898300    3.91820869763054   25.64797269322317
P         5.01884523385804    4.77062674367124   29.23087209305178
P         5.65282328084602    0.98983399396010   28.31273021982254
In        6.25204966827355    2.97743663975318   12.44480643041250
In        9.93131390101911    4.60266820607149   13.11578444934755
In        8.93005348244538    1.02983751112942   14.90204484456472
In        6.96084620806466    4.48230523976776   15.95308313568155
P         7.00786600326026    2.01274314623589   16.00652635269565
P         8.24285977315027    5.84038587942232   14.33995453086742
P        10.40981353320295    4.04128033224899   16.79899033868309
P        10.61565527179026    2.26910470175734   13.58278127792926
In        7.28525458112679   -2.07656331411583   19.39884507197313
In        9.82185711674993    0.60799497372339   18.58321073052450
In       10.23109812162159   -1.92113828545171   22.07837258869004
In        8.90733616858005    1.77545854074471   21.82822024970232
P        10.10832752340650    0.17651638776671   23.31692060371894
P         9.66213313666394    2.78198668301916   19.68227014432986
P        11.89827717648962    3.43190156261787   22.31850228354321
P        11.17982807835244   -0.81705223333589   20.08004131211495
In        6.19356070641846   -1.22077300247177   27.41672359929446
In        8.45779320321508    1.34153154461769   26.05865352288145
In        9.30347315186619    0.76038785843327   30.23524230215363
In        6.77396384795819    3.24177486236891   28.47581866076060
P         8.26366351566331    2.93711758360172   30.42493623460545
P         7.42492997922568    3.54227852974652   26.11253538594501
P         9.48835807016194    5.57948593262937   28.25064213573585
P        10.06550228250089    0.85806815642296   27.88308348897177
In       10.59493579734268    1.11801720609434   11.42055184626625
In       13.78874235054217    3.23533365135854   12.14506068727032
In       12.66960950884669   -0.49163597214409   14.43749013482992
In       12.14093661518152    2.92534963048676   15.47919900737972
P        12.77037706271738    0.75733800055016   16.52039945032475
P        13.36217733804508    4.59220257434379   14.11146030982546
P        15.08961131076262    3.93119300189873   16.98138203564312
P        14.20647776705078    1.11176991742533   13.34599678350549
In       13.26924092577683   -1.82968533519833   19.31659733181294
In       15.65154408284515    1.39667303431578   19.36930718713337
In       15.67298617021643   -0.71486486741666   22.49507739863889
In       12.16151633016366    1.23927883929923   21.18520876854774
P        13.30812742469829   -0.26554418770394   22.78596637639988
P        13.36009118746374    2.24379493109315   19.27831757673951
P        15.07400975786259    2.94567163650967   22.33842939517528
P        17.26793801168219    0.25534301768495   20.87021651901727
In       10.90334601505811   -1.38746974844251   27.35370449022550
In       12.35990020940450    1.49737246529120   25.53003506485495
In       13.30499265406165    1.13088156216401   29.56342936737591
In       10.49690902844184    3.35386906674132   27.93909079087273
P        11.96661940527410    3.12150798124681   29.93299030327495
P        11.01983996744978    3.52463758777302   25.51446992629441
P        13.13653398799172    6.43988087169179   28.16142547384828
P        14.08298836018169    1.66444748568587   27.28590365780408
In       16.17512504381779   -0.06551206375300   12.47348808130042
In       16.03214871820501   -2.28273171505953   15.96115905012827
In       15.48290963570424    2.25498737037354   15.21316807398085
P        16.15454614909796    0.09277603291303   16.20837123517989
P        17.25632385568019    3.32574260115608   13.91172690486612
P        19.80054878194183    0.44423756963256   15.46997988932138
In       18.35650925527471   -1.66273157956895   19.81949178940872
In       18.71706979295367    3.00348394639964   18.20756078905993
In       20.75666918619282    1.55200820082826   21.21280971408297
In       17.45300534380078    2.48511800356892   22.02959055153718
P        19.50527545124484    1.87083034545908   23.26445148513293
P        17.70946428123484    4.04651372500431   20.13807775874133
P        19.69329833369314    5.89979883535043   22.94718310107729
P        20.23468123952581    1.23390178723494   18.86522167986957
In       16.31397613625355    1.40822809967255   26.33414560922648
In       16.29537186775289    5.48633044584477   24.92109774107133
In       17.69499340368624    4.48357157605025   28.32683639252691
In       13.77791691364204    4.16733255900227   27.47635475535916
P        15.51263309412576    3.93044076195860   29.20992984484973
P        14.02600561901464    4.65402252985356   25.07735808712200
P        18.38298574863141    5.05833620872375   26.07588824811096
