24
 energy: -1.647827133424 gnorm: 0.000446438508 xtb: 6.4.1 (afa7bdf)
In        7.20320904136597    4.14217156856813    0.67510805018525
P         5.66928854907816    5.45940603825955    2.05460788624132
P         9.04525327009540    5.21973559106825    1.93650375611821
P         7.61628701252561    2.12266137494713    1.99584006775238
In        6.54868657270124    6.09168033905414    4.22253105628034
In       11.10750205720840   10.37918050358510    0.76918902911376
In        8.40313466082097    7.59493030125032    1.58445423803422
In        8.25743440384164   10.00114157528142    4.28249590439025
P         8.51728584957413    7.56266572314053    4.07128000067454
P         9.46697297820976   11.02957056543713    2.45647433860031
P        13.15260655654235    9.80112427008829    1.98378201334620
P        10.19277591803767    8.22501306528208   -0.00213253174140
In        8.53730434299846    2.58870181859955    4.18866173226824
In       14.50787825527315    4.40821673730454    0.77290919525546
In       12.75978425263619    2.16696909195794    4.33030263878180
In       10.79663877896799    3.48887115948357    1.59553580986464
P        10.77840648540819    3.60412686563712    4.08379793965342
P        12.19717966740844    4.73871126101151   -0.01629879385562
P        15.05379824678313    6.46804025415400    1.97723608254091
P        14.21192628171993    2.66941226563937    2.46137818169882
In       11.72977916921984    6.78396954436065    1.31228188520092
In       13.71701054841698    5.80936358845372    3.89880725581579
In       11.89627705380878    8.98690815004386    3.89981248412871
P        11.35648549216641    6.56706583634108    3.78280177964651
