28
 energy: -1.860646060012 gnorm: 0.000617946726 xtb: 6.4.1 (afa7bdf)
In        4.62012894011621    6.18106718919144    4.21479128556447
P         2.47994714261223    6.44638964038939    3.04614763478139
P         6.03603797274430    4.33129244314483    3.42502111890763
In        1.46910899722901    8.51651013565795    3.81302532666205
In        4.36357424298416   10.97370343933059    4.94543825299577
In        3.59775533372003   14.61382856365906    4.38354854943021
In        2.29758390610415   11.92625894903431    1.53138871545546
P         2.22120111070911   10.84848346263707    3.72378743106267
P         2.77382971232721   14.26832772127311    2.08011932144099
P         5.56224459852963   13.14693568561512    4.80568439075904
P         5.02761361806755    8.61223588352025    4.54271700923470
In        3.30620267196846   15.55350943119207    0.09489661340669
In        2.30687081331070   17.90324521944189    3.21384090720155
P         4.39234630537877   16.93638440131560    3.99894268984210
In        7.36210136819795    7.16231753559791    2.28352106043406
In        5.11227511818980    4.44093336047864    1.17752257094271
P         5.23902802985650    6.88966794582362    1.06492957021566
In        4.49229969807693    8.99931689656755    2.15064308358043
In        7.57662986820117   10.54709772985305    3.96966545398745
In        8.47789958660327   14.94821684458112    3.31206761781463
In        5.78913346939540   13.05775954077136    2.33813217209688
P         6.29433635379234   10.67486773521299    1.86165300394763
P         7.00811636688898   14.96630892196463    1.32590016932021
P         8.90961163469809   12.60325466533791    3.86885305259098
P         8.26765762286661    8.20907334830333    4.28992059159131
In        6.03923163860873   17.08484374178257    2.15693520655941
P         7.80982598012784   18.62490734772608    2.76704445013583
P         7.10729289871005   15.86034222060876    5.09814275002027
