480
 energy: -35.875560801609 gnorm: 0.000105965292 xtb: 6.4.1 (afa7bdf)
P        17.37296520825787   13.13150799077568    5.21701156606613
P        16.83786312426151   13.37745573524169    9.96251489935388
P        15.65882991952594   12.55183189583676   15.32401471407010
In       18.21114772681160   16.49309616954893    1.08467307776489
P        19.94556584906373   17.30212622365564    2.64842046835553
P        17.69424474787822   14.98124203543230    2.92408994962499
In       18.23059497534159   17.13463305796493    6.31471401902422
In       15.77141201208608   14.54201359320116    6.44401663613181
P        17.55186472720203   18.57503879314207    4.47324659748173
P        19.58333137454657   18.04714074151987    8.21046948571713
P        17.57689892314576   15.33145981986291    7.93026696542121
In       16.45268556545613   17.62764368171523   12.52931558183112
In       15.05862166830613   14.81906996233876   10.87393226725252
P        17.60069366873697   17.73878522823498   10.39637971242747
P        18.44089123490370   17.99590407016460   14.01579969206201
P        15.95941129848778   15.27325161697053   13.12446617130614
In       16.99061664243883   18.05992541934374   16.98381590363026
In       15.72039605813717   14.31721245376187   17.00575652429398
P        16.05731784913991   19.77224737615138   15.53293238941412
P        19.02156379636614   18.41989651661722   18.36466037636573
P        17.16515963578697   15.90079015301620   15.77064474874320
In       16.92537148008936   15.58279517706587   21.30119254960261
P        18.24781029366210   16.06855226297724   23.33667679861058
P        18.71969174284965   15.52911593175407   19.63420040275971
In       20.37876614214067   19.67062215345262    2.11754733102744
P        22.23900884683693   19.55215550169143    0.56799866799154
In       21.17018203892220   22.95462553612931    5.31282104035424
In       19.63217535464567   20.24181095152723    6.96216988264100
P        18.48836362257133   22.27368224002785    7.67736822687900
P        21.65552501585521   23.34328582120625    7.67578486700128
P        21.67085612849334   20.53085440314515    5.52233968150378
In       21.09585128541684   21.41269216963445   10.24527489324329
In       19.10012059021912   19.74280912924200   12.35143701982210
P        19.27011565083907   21.96719152885401   13.32567799164511
P        22.35305721417370   23.45201890379812   10.74275891995412
P        20.89043667835353   18.98282960617521   10.73383388943089
In       20.87862886324931   23.42627941200950   16.29368161355364
In       19.19316628000875   20.67389447318665   17.31719050266855
P        18.33900575437661   22.29281874271957   18.92171084334122
P        21.40989445920367   22.98554274782014   18.63319839424407
P        21.15131977985176   21.01165884024935   15.80446563076304
In       19.24217915285856   17.94680376822300   22.07248879360308
P        20.89017671412596   19.10108358172516   20.66655077489097
P        19.56963745453564    6.91842634792303    4.57674579875668
In       16.56220777567694    5.42593225444899    7.56316410087708
P        18.60568017042191    6.26507452916604    8.55857158755187
In       16.23869255200936    4.91213255248604   11.90943049163920
P        17.80710313750301    6.44204436905082   12.95774161767558
In       17.26983336392037    4.48291770771359   16.08781352039870
P        18.42756979675586    5.94591145311896   17.63896897252035
P        20.16058663390503    7.39277553889603   19.99672767151508
In       20.71016070823133   10.50548626785696    1.88392459619067
In       18.47880014645002    8.07267702830284    2.68344368186032
In       17.13321684683621   11.43852634213413    1.99310057550821
P        16.57614771992856    9.48263935176757    3.32763336872433
P        19.11350867496009   11.57031487519405    3.47155550066960
P        22.42890358501253    9.98610713415098    3.63281165009789
P        20.26899703090002    8.23256166357293    0.98051021269379
In       14.81461087364102    9.33312492938670    6.98455602111945
In       21.23829422629676   11.46674054834007    6.87381961378177
In       18.79958137661755    8.48985004187673    7.46759991867125
In       17.62829949397096   11.60510510339636    7.14750448170828
P        16.78463529897469    9.61355646225379    8.38260647825738
P        19.57138869701863   12.23143949410009    8.54497081170818
P        23.06555756690273   12.25863721944220    8.36635347207078
P        20.43089900289766    9.36436588589418    5.78292253503435
In       13.56917828268942    9.54621598217833   11.02487681111510
In       19.80870718641806   11.54980704633955   11.68076055615141
In       17.44904127288060    8.47521763405736   11.59166196134369
In       16.29722857810004   11.75618204306463   11.75250451366190
P        15.44024125993539    9.56401685809157   12.58898032733625
P        18.10987669278056   12.20868718442674   13.37296501794506
P        21.83195773122436   12.06245143241116   13.01209085741660
P        19.50381504699721    9.35371891600327   10.52537388939822
In       15.38555339106073    7.93960089794804   15.75359368910491
In       20.79586163026734   11.39266716679717   16.51094037463097
In       19.11745076006880    8.06061757799626   16.51470542662992
In       17.29239293702162   11.00143187409216   16.31851150888349
P        17.45240883047343    8.94914729553418   14.86943922914395
P        18.81996204039438   12.57216407803265   17.52175433979806
P        23.09691504400111   12.07850655522989   17.24082109926206
P        20.49151569484865    9.46169644700595   18.08189325274388
In       20.45959271377266   11.18056440061563   22.04051195604461
In       18.34140436180609    8.66932663994926   21.13150423476999
In       16.79351161649568   11.95092134976753   20.86270208828514
P        18.40709214651099   10.61484323688126   19.56816353721878
P        18.60802006437670   12.83599386871243   22.26523348511808
P        21.78839153628540   11.42025411073515   19.93838395492823
P        20.04030069006730    8.90371099085023   22.92203228695238
In       19.90860505053578   13.91347900751169    3.17911167411496
In       25.27323398987875   16.10699571184263    3.63301767514429
In       23.05788104237570   12.40008829433228    3.48823355854154
In       21.88649729538991   16.13515326911533    1.60376489101897
P        21.88252237612712   13.64382101548827    1.69179681890812
P        22.92548019466843   16.94463984757135    3.72669654167225
P        26.99615695912478   17.92141635434604    3.50843638078162
P        25.23362377462595   13.60450805265941    3.67080209865798
In       19.90238952623987   14.49572860443656    7.58573615816209
In       25.01256117886380   17.47181221472586    7.13010873113410
In       23.41729374000752   14.21932948885332    6.87806220626766
In       21.58563928590170   17.54039622051844    6.81434586836416
P        21.43779146505703   15.28681596374872    5.78696025718389
P        23.16071661369688   18.19766677697926    8.64059740653114
P        26.57781111828646   19.14224887873724    6.12713560331749
P        25.44720150360188   15.16537002518165    7.98961502510057
In       18.26817833357408   14.56216301676437   12.50975118515914
In       23.86489605870888   17.07920639100214   11.53197779353641
In       21.92771924032405   14.30100044839547   11.91455172272708
In       20.59248304612082   16.84632441264517   13.46452892821618
P        20.04440544423795   15.81009248410800   11.27698940561029
P        23.00638793134171   17.45992302130290   13.82706788804825
P        25.14284006629905   19.12142401746698   10.88185011524271
P        23.54575165819295   14.99365684800300   10.15626429786039
In       19.19801733617105   14.45287310063964   15.93279416555207
In       24.62214567320942   17.20330293860022   16.82812221558146
In       22.71942000791747   14.20616857867704   16.00220768310787
In       20.87327810206456   17.29989966714222   17.10460687428839
P        20.97438291734129   14.85904697052190   17.64857390234368
P        22.88096845377567   17.80207125618334   18.51910659043283
P        25.89444560960221   19.10901580141745   15.80278107961635
P        24.66885836285690   15.43564990199620   15.07820004246092
In       20.17012160511769   14.55275897769593   21.37352387106180
In       23.12600580986144   16.68544116012183   21.78514924979099
In       23.09204608605415   13.04874498028938   21.32946118375207
In       20.43202323172422   15.69228090970156   24.46038456384602
P        21.77061353921020   14.00720001972659   23.20931068165682
P        21.99809915860270   17.51096023494115   23.83115378329406
P        24.63454640662824   18.49202153177395   20.95671261966514
P        23.03888291402432   15.09309221843218   19.86875967411665
In       23.83385475852603   18.74637385497588    2.25214276711909
In       27.92636393039239   24.09595263654708    3.14225093770680
In       26.53958622994361   20.32577907846414    2.99802146551083
In       23.93995367619453   22.56405285610424    2.63447340294533
P        24.23501794800979   20.51556993827129    3.98456570287965
P        26.02255379504199   23.43974754789228    1.73843568560394
P        30.16583770524905   24.48887825662963    2.22964642659563
P        27.84470178449751   21.93775609312397    4.38766025353871
In       23.14633280108513   20.43993133238432    7.53116229644641
In       27.61314370658257   23.69304740240899    7.81851598259710
In       26.38151475415085   20.53769944854355    8.18396613732348
In       24.09964425488113   23.76431609762917    7.75699041404256
P        24.47333628411477   21.76730109544737    9.19221206346337
P        25.85249293694730   22.93680765061204    6.22230078054237
P        29.59380462546683   23.21770674523409    6.38076033554485
P        27.78840947181980   21.99017527785233    9.64212306069131
In       22.21320692949464   19.57443834320730   12.77692396644476
In       27.69974605715494   23.59525314773290   13.21831456074386
In       25.45894704567664   20.79586375059623   12.70083334799064
In       23.30845330797292   23.46098601444274   13.01007042088369
P        23.46464698461318   21.24487509269046   14.13155422256959
P        25.53266964988090   24.01475645903683   12.12650205595276
P        29.50966424869504   23.28253214454264   11.53800102429552
P        27.15673780605879   21.45529229790550   14.42507356387920
In       22.72772788259500   20.08442542965246   17.49443494697325
In       27.23265089323006   22.90922543353934   18.08813299850143
In       26.10873958856381   19.90635971630963   18.16444475822462
In       23.82658859687696   23.26063655301330   18.21086044588790
P        24.16530833502558   21.04015402948404   19.28760278252552
P        25.38607340649595   22.46732694277249   16.45516520424088
P        28.98452894720093   22.54296542020491   16.35156509931210
P        27.91626494670220   20.97258498188892   19.56500010185360
In       22.07588800627986   19.73879243162744   22.73183619225683
In       27.88144721235638   22.60981546566151   22.82340033848584
In       25.51697065157302   19.28186879314703   23.17143463871826
In       24.25082743541594   22.89272995247932   22.78689254974027
P        23.82427220107016   20.86127956444028   24.08408344561143
P        26.00974413188207   22.03094266924073   21.30880749455082
P        29.91709520519212   22.05246809074444   21.51713573418182
P        27.17070276347643   20.76305693660148   24.30576285027363
In       23.30800244587590    3.34722914169589    2.77640187891002
In       18.98077332118417    4.66668687955498    3.76550716933537
P        21.46588742300248    4.71790235966110    3.75303605741645
P        25.69396340353604    3.92352232703588    3.13264854308910
P        23.29056456932300    1.44936277185563    4.34947720377673
In       23.76385593886642    4.97741234277431    8.35818541579989
In       21.26157879644320    1.62049554130577    8.06536355061024
In       20.50667077251323    5.01238725894881    7.56260069500753
P        21.47546436094157    3.17821434236792    6.18183984818739
P        21.91723083144165    6.54374987551287    8.95211429724767
P        26.16331213005590    5.60275263562885    8.68083364638488
P        23.29859656131981    2.63046088776175    9.02223331894044
In       23.68722861645867    5.74238198739010   12.80296189822783
In       21.53677881910161    2.37116374090609   12.38942043212152
In       20.06326935251562    5.66340145823209   12.28264875691675
P        21.52254920479394    4.27209963785289   10.82581620844200
P        21.68177012641361    6.88527323291653   13.69794830256280
P        25.89446766333554    6.62657517062111   13.55017465999430
P        23.65757005212067    3.30437564791564   13.26152662348650
In       24.38058532753691    5.43295892425575   17.30642491362204
In       22.60106263881861    2.35518051201973   16.86358489172536
In       20.74626229652765    5.11891055495936   17.34768518151836
P        22.04611478636467    4.29161228163701   15.42633323228147
P        22.46913855430648    6.34246649327041   18.65246231468680
P        26.10328655878813    6.58292231536675   18.69420725200285
P        24.84801190186745    3.01410766026906   17.69491212348535
In       23.71299634475917    4.90419372408470   22.74368789014732
In       19.97525610918727    5.44798843750235   21.50222147446156
P        21.53739074903378    5.92590673123216   23.32600410559969
P        25.53923208281791    6.28418943453448   23.69317431069712
P        24.12858065462123    3.99086601922068   20.49183896632779
In       21.55694700983388    6.26212526211368    1.77815215933402
In       25.97167291039106   10.50826744693920    3.20431970114384
In       25.65061153951118    6.39016042970678    2.89035300264425
In       23.59389661738718    8.94164259732757    1.66719998120630
P        23.31652128134931    7.08162243651742    3.35025987313598
P        24.87005825746646   11.00461336086009    1.04723973977870
P        27.92864157654412   12.01794239017789    3.01996035197366
P        27.18894972881831    8.34028590060990    2.96771397332164
In       22.18332897457658    8.25929175662683    7.18044431328515
In       27.60025136496418   11.74765415628327    8.49088033782493
In       25.46828838358806    7.80367391195093    7.70027153292775
In       24.75094280036885   10.95226390451233    7.08813223201501
P        24.19125432604074    8.87480612716090    5.81892453805054
P        26.67709803223033   12.30711127819997    6.26112134454200
P        29.80216517044263   12.87315907051218    8.71655199649685
P        27.26553108717023    9.28545089135595    8.58730995841072
In       21.37076661036876    8.77144315871683   12.10274059640867
In       27.13566174222938   11.59682752911071   11.95515242879905
In       25.47912642790557    8.20919274898855   11.64382518107714
In       23.69913153493578   11.26630063468909   11.57654117941019
P        23.34540089529943    8.99455295958481   10.61295648122401
P        25.15857438841280   12.87408575154046   12.81052336864928
P        29.11105360682779   12.18971873594445   13.35796223965612
P        26.92323445969489    9.46145629335109   13.24929076595538
In       22.42742601199538    8.25055414835587   17.02158047265620
In       28.21044503225857   11.33143610852187   17.14005300787122
In       26.02973418504642    8.64812399357268   17.29259395555476
In       24.42950471731821   11.02033582364629   15.43522537519472
P        24.33769118652458    8.53294446836643   15.45544626131475
P        26.74721753990256   11.94555818000534   15.20434181826825
P        30.30571140637356   12.48014017521334   17.90608139544998
P        28.35657856812559    9.05958011336362   18.17570629524178
In       22.33110009256714    8.07859217962460   22.35128268971168
In       27.34829833699372   11.62933480004808   20.67073609146921
In       25.69943722296658    8.39894008626782   22.40816136904300
In       23.89538282521495   10.05965516073139   19.92476107754910
P        24.12002940797021    7.63807496022947   20.61759121078970
P        25.38081050957571   11.93264911363645   19.18489191682145
P        29.22196109566947   13.26948630957324   20.42828249615207
P        27.60685971700011    9.98969189630233   22.49881949671075
In       25.36268679069478   13.44696995477948    1.18814177984528
In       30.24586971100046   18.11812559983137    3.77431245153106
In       28.18546116931972   14.48946159047155    2.90302101211081
In       27.76297194708241   17.46667382507227    1.19685483716943
P        27.20332763040812   15.08323674973629    0.70651140233051
P        29.60073134534395   19.10685385538463    1.60670437182739
P        32.60986707308862   18.23281751455709    4.52500510929281
P        30.15614187752311   15.65063110626609    3.89071107844449
In       27.13563877761714   14.74573539491777    6.23553535062058
In       31.72618719104397   18.49679822328302    7.78003125694416
In       28.98523195050005   15.20298004547092    9.06942574909418
In       28.52839308687212   18.11297493675916    7.32688065664827
P        29.32787079610370   15.82377687212637    6.67097660491911
P        30.10245360912053   19.87836925550436    6.45841213840779
P        33.57588863891586   19.42455510419105    9.15998514484153
P        30.87445810096916   16.80261572502299    9.39384299082242
In       25.81467594300577   14.58562714196038   11.13803013773327
In       30.77743742730674   17.51597205054298   13.10786413183346
In       28.77423911497263   14.62991932833186   12.94647130165905
In       27.32307119621145   17.93897074257445   11.18040239328917
P        26.80230992210011   16.14949324059322   12.80909066594141
P        29.66927783732281   18.79274668052549   11.29248174362085
P        32.79533524593764   18.80548043501155   13.73471113230997
P        31.11410669958292   15.10537843701766   13.65052480891503
In       26.27119061391829   14.08350267146800   16.40140152749828
In       31.75726442667370   17.69103534702660   16.75391332340046
In       29.62953627584141   14.60555824743916   16.74681983636161
In       27.94544198018836   17.70745119928731   15.97214077837900
P        27.62035140077315   15.83675756590205   17.56401122741723
P        29.96206966091669   19.18583515326505   15.85604246644563
P        33.34876826784165   19.07387156014640   18.08825894826258
P        31.03597218718782   15.90340772780726   18.33010777106598
In       25.44468124887624   14.38911752888054   19.71263348945454
In       30.32184429562601   16.79529829931215   22.07667184023924
In       28.40644180009128   13.99037056093779   22.67114662012410
In       26.87647209966018   17.38861008912681   20.73172409170428
P        26.42399059177814   15.21758094839854   21.83461440544683
P        28.93773092778827   18.70730766844414   21.22084563748228
P        31.93492602250760   17.79201125658101   20.43685686023960
P        30.73397394703156   14.63265562124039   23.23601866305134
In       29.71524442994573   21.27624574539067    2.84393209836851
In       32.94305449161391   20.27143140234422    3.14530974866662
In       32.27632461810978   23.68727686659205    3.14698807755287
P        31.50016349609568   21.78919612780541    4.54652020490328
P        35.39665370365889   20.55554085500019    3.28461468060082
In       29.87289248790065   21.05264111682273    8.65610501279193
In       34.89559285273123   23.82708572116163    5.80704044941230
In       33.34815491628303   21.66873465153699    8.09752264371254
In       31.11084933779128   24.34584667674460    7.98244133924178
P        31.59980702749417   22.56127294381989    9.64219855396675
P        33.41727789795934   24.94343347933336    7.38471798679221
P        34.45306380393349   21.38003080081907    5.89573307063286
In       28.98915019493972   20.51550182903485   12.97322642191697
In       34.74831777723104   24.11285031849728   11.78547168702596
In       32.43616179905352   20.94984303253527   12.54612401327944
In       31.10323187848435   24.07443479629697   13.26176870584198
P        30.77222984651755   21.78983365059143   14.21750746661856
P        32.76091418275824   25.45977577952016   12.10583472497883
P        34.29713794968983   21.78213414451702   11.09823851626853
In       29.75380071101807   19.96109520330085   18.20265790278675
In       34.67181722900688   24.07869103801897   15.63145778086884
In       32.84055308037158   21.16114141099040   16.84116240332634
In       30.63050400047561   23.60668876704038   17.88078868774804
P        31.52101398436350   21.54865868842973   18.93511452065666
P        32.63326233586528   24.57462399402957   16.84840534495393
P        34.91693672042833   21.62471066929421   15.54035670632167
In       29.18667867571053   19.54058881787507   23.55773695267550
In       32.52337620605133   19.47022082486932   22.19885775940591
In       31.56505407035018   22.77092410393028   23.18135269831613
P        31.39120875490017   20.51577426524950   24.14230976107987
P        33.85563771260264   21.05902372215392   20.86026253017165
In       24.90606757886205    0.25281218121947    2.96832068583485
In       28.90668512571236    5.59864879018096    2.24844601491197
In       28.60699684716968    1.75300305541896    2.82675612279887
In       26.25950873009496    3.61600142629255    0.74454374937312
P        26.59976725567481    1.26887248472291    1.50564718244583
P        27.45392158759094    5.74646024854799    0.25074513871243
P        30.12192125184890    7.64713785122935    2.97734136779552
P        28.86978779414026    3.86366441905220    4.00113908654104
In       24.99895376446808    1.50599119240456    7.62848897012583
In       29.30871079800617    5.92508986357991    7.47194130662595
In       28.77282489933309    2.01291077880219    7.28095130650056
In       26.49914355216483    5.04881622523810    6.26591362415410
P        26.66082242724377    2.55872342617893    6.15941063421551
P        28.14027141253814    6.79109941429221    5.45991963709921
P        30.08877018360133    8.06668783149190    8.51854120926790
P        29.82441278092968    3.77566509382177    8.64549576020672
In       25.30863269514316    2.67057385165717   11.54152952739331
In       30.52372204585218    5.26099827385559   11.56761317705408
In       28.78810024324357    1.80335975075054   11.64795838111186
In       27.37270599457137    5.24585875602029   12.10243397712985
P        27.38442981748446    3.40629404270965   10.37273601044091
P        28.72829150716856    6.67855704315634   10.56244137759878
P        30.92057999192875    7.08007729665097   13.23345503417283
P        30.47737852149920    3.13218879578157   12.83880916294807
In       26.06493330235814    2.28794590293255   15.66931429418459
In       31.08798736909181    5.13487535838882   16.32714131644922
In       29.81511386352989    1.58428758133526   16.30810977585721
In       27.72101116053345    5.34030481435988   17.23512640951666
P        27.91938074091976    2.86888744866490   17.18292864642336
P        29.03077853717248    5.98452713726063   15.23097503451848
P        31.46929012669934    6.75763470041919   18.17573363872491
P        31.64536994218305    2.90316502050327   17.26605331822433
In       25.45316713764954    2.06481587148177   21.21354820026792
In       30.44244080167586    5.62995037026860   21.88628918864613
In       29.86369154092926    2.34550193488437   20.88976633330071
In       27.08937794699359    5.12210432830321   22.14864069508172
P        27.69357179310848    2.72150780894050   21.97269063233019
P        28.49167327121037    6.25375385120947   20.44194507557864
P        32.01768805513326    7.31321057973525   22.80153836195030
P        30.81170763239049    4.33350667900948   19.79824035121161
In       27.44230736089117    8.22697164865742    0.50812548385680
In       32.02594801530110   12.50690244255295    0.36561452975025
In       30.52484370115725    9.90232235677406    1.99082657328006
In       28.28711515570702   11.93160465272645    0.57053121253834
P        29.27591691265252    9.77005362436683   -0.14256641767571
P        29.89711537658850   13.80701877860657    0.29659753418850
P        34.40657936104134   11.87946828999205    0.07502596877683
P        31.72561844481305   11.96706043153935    2.77222147848308
In       27.93925882944489    9.16996443619746    6.20422916150904
In       33.72804939668909   12.42070089441890    6.85425252420746
In       31.16222530378171    9.62178513959713    6.88077802583936
In       29.97467082146550   12.73546703646351    6.25836396977942
P        29.69588463636413   10.55982008825039    5.08675300781693
P        32.09102375354964   13.93475280750708    5.73911657686995
P        35.78440974674654   13.28530883311730    7.97725089354072
P        32.63634926995417   10.87504368742934    8.46671949078361
In       28.82961696540331    8.88572311056808   11.75018056876300
In       34.50809656733450   11.79222677966693   11.55020870623066
In       32.15567930224370    8.66512665614769   11.72009161156571
In       31.05792304594600   12.17003247382421   11.82330921461109
P        30.57796499768874   10.14000117210289   10.45069087202943
P        32.82123403569950   13.16553126546291   10.34722599672613
P        36.12068920128500   12.42244066414788   13.33621779492414
P        33.34679982862771   10.31255704911900   13.17525274020650
In       29.01637745068378    8.39375775635764   15.86747834937835
In       34.81149930207446   11.88519736275502   16.47366721159440
In       32.25450750287055    8.55037060972713   16.64243629094748
In       31.36484198978080   11.79268224627766   15.77322966801806
P        30.94866971664623    9.54930037226716   14.76933931674671
P        33.23486453972950   13.34369186320183   15.20811215981127
P        36.03442445270015   13.39821474012926   18.02964171671329
P        33.46018692581549   10.33042582597296   17.89268077034863
In       29.17020502085838    8.51981901287076   21.26359238001062
In       34.94385867269578   11.98021581623283   21.26797844174128
In       33.00762581129148    8.92837432658199   21.19577558335368
In       30.88024995537367   11.50043404201811   21.05519485354586
P        30.99921976470904    9.33834707655146   19.76517439136603
P        32.90796901799509   12.43613981613417   19.89870063552808
P        36.93812842392580   12.56254476677830   22.63146871208736
P        33.92983815781059   10.44303337880311   22.92257077868965
In       31.10672084147909   15.56348288829911    1.58593178987991
In       37.60011376417380   15.93545919596206    1.46229926581981
In       34.88375685904195   13.16878578017366    2.13245964208527
In       34.19922514408884   16.92668682109201    3.14760583632918
P        33.08594466294468   14.71691578463964    2.84630699823530
P        36.56566402581305   17.67314458836076    2.87669273769280
P        37.27790487102556   13.69735383303003    2.35121339032199
In       32.14894700641221   15.22655258974453    7.88254755839047
In       38.23941031036390   17.62873262180400    6.56807952167291
In       35.52292284377899   15.11382886741091    6.28780520438825
In       34.92325806175648   18.30667156284905    7.38132736316590
P        34.43354190665860   16.06740381176024    8.32759928315323
P        37.10977457862833   18.98925189685859    8.30515799615899
P        39.06696586077798   19.30791835445079    5.01713559168164
P        37.53417772766935   15.84130768641004    4.96461630330324
In       32.72294436214023   15.20887379237082   11.75566748511772
In       38.14035934393862   17.51193936761864   11.85578147562013
In       36.07601253021021   14.70961907841278   12.31840930658234
In       34.71243659545465   18.02276814329258   12.35668216497759
P        34.26952984856252   15.88662161826070   13.57175262861199
P        36.78995517433249   18.83611193511076   13.47544221522115
P        40.30623779723264   16.78051816756959   12.68508338920519
P        37.12189774497650   15.81682869840547   10.35350450787822
In       32.92426148361892   14.58933722189753   17.34172354949456
In       38.61542579034518   18.49408780525878   16.73241782122021
In       36.20828574527921   15.05248834508239   16.15932829801064
In       35.19775772724269   18.41861452796574   16.54013181735941
P        34.70149226237507   16.27319554208572   17.71798700432687
P        36.80605147278122   19.18476606866032   18.27771498809825
P        39.19460372626134   20.46928746352688   15.44643448489438
P        37.96597137407628   16.59554460122039   15.26558154335307
In       32.49098142609928   14.31643907700178   21.50560594344076
In       38.36284794300854   17.67659009070870   20.95092274052648
In       36.62976937843944   14.93596026376780   21.96592981102338
In       34.34543355895321   17.17225080524558   20.83383204327482
P        34.32576130327803   15.50562306836038   22.66849101671205
P        36.21689423480560   18.39070179131956   21.91976765922433
P        37.35492950000786   15.78740523168489   19.76658385774981
In       36.07678758175157   19.44882896300924    1.21677620242816
In       36.66860803403273   21.09908501367682    7.05366117210071
P        36.62643646872556   22.83847025996265    8.75152307543679
In       36.38051322657470   20.91538591891106   12.17516080006056
P        38.61834504249082   21.16392779476577   11.26262879936523
In       36.31841915066085   21.50533561045443   17.57496600518651
P        35.43672925687536   23.16684909055943   19.11130559001012
In       35.79506151956567   20.77403282528694   22.31058293605118
In       32.48268187674382    6.93392586068041    2.83138672083278
P        33.15362804236440    8.31112736838732    4.74286553309065
In       32.01699521333040    3.75934474693275    7.48373470581736
In       35.83260029155910    5.52438606691226    8.75074697303173
In       32.35007571073159    6.95133489856471    8.52372411403388
P        32.56773808525181    5.84169116184502    6.32860684771050
P        34.45564620870396    7.20846144081990    9.85598030872095
In       32.88985914347155    2.66925838312314   12.67486494428907
In       37.00417451095331    5.70017134650566   13.71817420664066
In       33.23013897107384    6.12847868251356   13.54101210238142
P        33.73380609883967    4.69629455508324   11.59319695246707
P        35.22848692597407    7.04083398607218   14.72285134813471
In       34.05477522365515    2.42179964937420   17.36726634297895
In       37.47757852856508    5.82192483269639   19.00364661592757
In       33.72762942210063    5.71790430199182   18.37044894695819
P        34.61214682157481    4.58017699306732   16.36278558839686
P        35.45755772182122    7.06858305658041   19.53570163056390
In       33.94778431555970    5.81784377293481   23.05026712450231
P        36.15516440348221    6.79988186944860   23.19851182040345
In       33.53829830652099   10.53276796847917    3.69202780000663
In       35.42783875596732    9.75201485942353    0.72334945250411
P        35.89554760462266   10.16604609570035    3.07514804922658
In       34.64650994100933    9.39873550836262    8.65251755681001
In       36.88152817906960    7.81128353438187    5.70822501127915
In       37.08899590449523   11.26307229698321    7.32811436291950
P        35.42389379260165    9.68772133212160    6.30580454310779
P        37.35357091613015   12.34188594043742    5.11993591873311
In       35.54142972536704    9.16934437342814   13.45846626251591
In       38.57048542763098    8.05787472586590   10.52937521959783
In       38.07974844110851   11.40303749777781   12.21768488899511
P        36.76146152473512    9.48688219478235   11.31857451861986
P        39.12526705769311   13.64028733354353   12.46361318669755
In       35.48621570131866    8.85903659292629   17.81110906360191
In       38.95244782272989    8.92582162344560   15.69262322316293
In       38.14900929485642   12.13699350664817   17.74423198573410
P        37.82731860002811    9.68130189771974   17.69822058866161
P        38.66003648701916   12.85356990169721   15.44763559129015
In       36.10633696017383    9.24797342843256   23.00290864607757
In       38.61563355890407   11.22796062282100   21.44828622915952
P        37.07011177437624    9.46114636601558   20.72923540419081
In       38.62292375788189   14.06990799413713    6.33042914985499
In       39.13244003287516   14.40669991550257   10.14752520528110
In       39.49195825384042   14.97508514023221   16.36009404172042
