38
 energy: -2.569971525200 gnorm: 0.000774071835 xtb: 6.4.1 (afa7bdf)
P         3.94549408561423    3.94923354944660    4.65689583423587
In        2.95116798971133    9.22309074379667    2.40950069327178
In        3.07344599941397    6.21263448114905    4.96886869831870
P         3.46397855513838    7.14826868261377    7.17311695095568
P         3.36735009106568   10.87446548805385    4.12739814129756
P         5.82091693370011   10.10513213879601    6.83279513593031
P         4.34980557094841    7.33421062436124    3.14789628206999
In        5.19545943041236   11.97022745761131    5.33960883751386
P         6.35529473796516   13.15331663333832    3.47087175315851
In        9.22571794410633    2.95700010566140    2.40587782694035
In        6.20872943056432    3.07389810603631    4.96206471850297
P         7.14787373399578    3.45955923940647    7.16743059372549
P         7.33406465959244    4.35203456552548    3.14288658869179
P        10.10350948818448    5.82103820860332    6.83157336527979
P        10.87667452537323    3.36959214117433    4.12576704233227
In        6.20494047397482    6.20832400050476    1.98463226123300
In        8.92418917496027    8.92282758698731    2.36651766238796
In        8.49731815945982    5.66802856840528    4.94556149382837
In        5.66803444246240    8.49721136110963    4.94776205663241
P         6.35599919458766    6.35558635399672    5.97715272645699
P         6.80231434612655    9.89508251597548    3.21588930533430
P         8.93916372624776    8.93854032946738    5.94218273604531
P         9.89850951208937    6.80068140266718    3.21506857588591
In        5.79578513892438   11.54536943678177    1.68919764479336
In        9.39830284255452   12.48649945040120    0.85218369460429
In        8.21426074654687   11.06918359507131    4.94077399241011
In        7.68158016137285   14.52533629943365    5.03600706208660
P         8.10288881211929   12.80309355027181    6.70807362057790
P         9.50283775339145   12.39415600105243    3.28067724053323
In       11.97081028144611    5.19618598317816    5.34248472279207
P        13.15860842923882    6.35639759615708    3.47658576805145
In       11.55427922385921    5.79809503024195    1.69141086996919
In       12.49051513089258    9.40031779081139    0.85417625428019
In       14.52604385491964    7.68487625449295    5.04345775138921
In       11.06936024188305    8.21346202698070    4.94122024321732
P        12.79986412133353    8.10416316857595    6.71180086029227
P        12.39620590421406    9.50355145010886    3.28285932294827
In       11.86784765159470   11.86847058176322    3.67503167203098
