492
 energy: -36.961919854645 gnorm: 0.000129782493 xtb: 6.4.1 (afa7bdf)
P        17.10746495590892   13.89667406474811    5.63351897730697
P        17.03931360594280   13.97268107920491   10.51646013225006
In       16.77117261180499   18.32457350763597    2.58205133255892
P        18.65891363853318   19.26236758857624    3.87268413792557
P        16.99096143555173   16.25633749459591    3.85541252511087
In       16.88172286824508   18.21997689394311    7.08060934193044
In       15.41112911586531   14.78372076791227    7.17607001618450
P        16.95007795189753   20.44099403499165    6.00197691789762
P        18.93295602871574   18.46761823554652    8.47111052150579
P        16.78199756573190   16.24549294078635    8.61399371423395
In       19.24245392230462   17.57241986362314   11.65718768580437
In       16.91049569803735   15.31173137826654   12.57628361422407
P        16.97329015653822   18.32412543701836   11.02100166563280
P        21.14715905197977   19.24647286748667   11.57483235312900
P        18.45041653505350   16.75201044023240   13.89472969973114
In       17.28260342236081   18.02328652089123   17.07342963911592
P        19.47373303113085   18.61192099348197   16.08105280638899
P        17.53576490598110   15.61896018790958   16.80376677311131
In       21.26214787600967   23.86216129264914    2.70811967571417
In       18.84062622889088   21.64207122556596    3.15472152630148
P        17.14650105844652   23.21916080467824    3.91042320741728
P        20.92182487826621   22.91205891982716    0.50453164772181
P        23.26716003901987   25.35990337387667    2.59205378754451
P        20.99094004668692   21.98430068415549    4.38081004091154
In       15.64579255586102   21.51431792417388    7.78292644748140
In       20.78352788378436   23.47615286067757    8.20317973208903
In       18.84633591941784   20.90368533952434    8.92581523650366
In       17.52137918635190   24.36591532053473    7.78803857735632
P        17.12451348011762   22.58664790209221    9.45883343902263
P        19.19967475771849   23.34230892950378    6.27272223217513
P        22.33294745590666   25.42764880479413    8.09707194605632
P        21.11861464012957   21.52289100437761    9.71030606892813
In       16.86501445136907   19.61522509294051   13.08623471802425
In       21.01883620850791   24.16192864397130   13.07430742434734
In       20.32584886542222   20.89501568795221   13.26814064840848
In       17.60522737176442   23.00459667759932   13.36585115912746
P        18.24407659524694   20.96805273109115   14.61974323816245
P        19.16824152410737   23.53780780687466   11.51328227850403
P        23.39124839826333   24.93990573077751   13.08110513072947
P        21.71213019690413   22.41243056488275   14.71822860244559
In       22.08085231448896   23.21317899204678   17.81217995999135
In       20.33183697636727   20.05132474016664   17.93773991410911
P        20.07457883231500   18.80410267527595   20.01124939837151
P        19.78532873617436   23.36288029016807   16.96902793311593
P        24.19559639299425   23.81382899403791   16.61837264182276
P        22.52919254457852   20.86899617196410   17.06094679727195
In       23.47749357756153   27.47820085731721    1.32731702819461
P        24.93930442944635   27.94980837942900    3.22448731745155
In       20.27234455502575   25.49631996599679    5.58057406077242
In       24.51611805601636   29.98647792703684    6.82919582960307
In       21.95456621373507   27.74150089140089    7.20755704523058
P        22.33844513895949   26.73565451852451    4.97904615318057
P        26.46524553236100   29.25333237651456    5.52370412702490
P        23.78492547756221   28.52974952555979    8.70470164019164
In       19.00506192230687   25.97053419592891   11.03087295712581
In       24.41641349423694   30.18885254213358   12.46798087256282
In       22.84330175072234   27.22598036622531   12.27480991430725
P        21.14090301748281   27.02048386471846   10.49636764099286
P        25.77774302509695   29.13606851147431   10.69851822643150
P        24.83684771067956   28.01656506446446   13.56470810252035
In       24.52646043467450   26.23901950744377   16.68521296658555
P        26.66590468452839   27.38824535090483   16.57669117782796
P        20.73067929998483    7.19025987198545    5.27695206650793
P        21.49389369183137    7.59311883984362    9.95433443467706
In       20.27420027916946   11.56018467151175    2.02125284298431
In       18.36280397280101    8.21352460548380    2.60571091506085
In       16.66969137477840   11.98804104354431    2.66114555991558
P        18.79265642293840   12.82972029623044    3.61024001666242
P        22.27118840506516   13.00947484492050    2.22183007963616
P        20.40673517987823    9.39655374819156    3.28482371283317
In       21.04284550832885   12.18813970054261    7.27055352211162
In       19.49084825390117    8.68108428389520    6.85500285459729
In       17.69604781114828   11.94877983632178    7.08437171862891
P        18.97408177595772   10.62431154153834    5.40247868776039
P        19.20646482584559   13.10540302881702    8.71886904750266
P        23.31760997963871   13.21357129045771    7.42867370341199
P        21.14782769538825    9.89972685873080    8.30094734376750
In       21.23290105547813   11.66351548329822   12.69366199067517
In       19.70620506697220    8.58728118085123   11.37409775933083
In       17.84236899099385   11.99953786063504   11.81566243427661
P        19.34126444448140   10.76517563534746   10.24599330960967
P        19.78470634844153   13.58451397463599   11.96822501523764
P        23.52072761906403   12.67114945332024   12.79648567035535
P        20.49457137124589    9.42116758708743   13.56701335812749
In       20.86344424721051   12.15171514562634   16.35652725562426
In       20.21273709977267    7.54295903611971   16.59152774238961
In       17.23421674327447   11.33258926961956   15.76574998101757
P        18.72425878665043   11.88560083777931   17.59274698790358
P        23.03999512365977   13.22222695026194   15.65864041819447
P        21.34566496965806    9.70294029773720   16.38184540829994
In       18.70647290321821   15.08160383564080    2.50881852392423
In       24.08186734960595   18.04267478848039    2.24127302399135
In       22.08353459143114   15.08005040837790    0.85936757253816
In       20.37289902993561   18.29139975204898    2.35079283105280
P        19.97408469557050   16.37731502952270    0.83241472004799
P        22.30182460340461   18.74626802737280    3.86160386276592
P        25.69674351626259   19.26216786985540    3.70988859622887
P        23.17308971300251   15.82891811529545    2.97146489867300
In       18.97170309730830   15.38050116591540    7.71796356452249
In       24.51260488495071   17.76610219050525    7.76816339794534
In       22.41091045712295   15.32692169021072    6.47155725724851
In       20.51483723172703   18.16922806448537    6.56552813400178
P        20.14791931961338   15.88927095814755    5.58789529796288
P        22.11511942864552   17.88496060664257    8.46666204789157
P        26.28163442608979   19.42333976982976    8.34122063331771
P        24.18691369824257   16.79993822627755    5.48657763720467
In       19.92475029828213   14.73854144119609   14.16119072734453
In       24.37284057608850   18.86756068115454   12.04819239289844
In       22.71892483890510   14.96963506520453   12.19936949727962
In       21.63323822421062   17.89719742188526   13.62506815114990
P        22.22085753283246   15.66798855056627   14.54531121543922
P        23.34471694616023   19.59309596037642   14.22730818424652
P        26.35116102525958   20.13513902114127   12.95822403409243
P        23.76301579415131   16.78424235303950   10.84435914742124
In       18.64671982950608   14.19633073497212   18.45982165852848
In       24.62502287246689   17.15817404217880   17.32407587307724
In       23.29591302125637   13.94383612933130   18.03627687244319
In       20.75568781161245   16.79002701602375   17.24460388747972
P        21.04020346327268   14.76850228091641   18.66805807898506
P        22.58636891732432   17.78540557648138   18.59661171863044
P        25.65960223577795   18.34871688074780   15.39007148378853
P        25.57760597133733   14.89598994340352   17.66613363500669
In       22.67135189295889   20.98272471634236    2.81508956500287
In       28.49425035780535   23.83946990109408    0.30698253451747
In       26.15358544998690   21.15050195393659    2.14151865240029
In       24.55088722249790   23.92798777966425    1.00080623767497
P        24.46197051785715   22.69221756585153    3.18810490064587
P        26.52156746900793   25.33351067517897    0.44909399374745
P        30.83350480384313   24.45293243312938    0.83532487764185
P        28.00920108848317   22.78921558989654    2.50344176023632
In       22.51300429106470   20.34293555217792    8.00725455314930
In       27.54175372182147   24.31747547925817    5.92008362670308
In       25.63422496144071   21.51641690596187    7.20015708330592
In       23.42129617457550   24.04489384431396    6.33350128411257
P        23.44120625698483   21.56278699434001    6.00358205419814
P        25.33896385417843   25.47083360246715    5.69914714813280
P        29.56819854705343   25.65014344635841    5.23989967186438
P        26.97066325285782   21.99611143111581    5.14114539281555
In       23.52588904726373   21.81027702618067   13.10019636853516
In       28.16215229471819   24.78044574799089    9.40729417893170
In       26.33477909654342   22.02786234695771   11.31811079482050
In       24.05941640726991   24.39922278646393   10.75179484294490
P        23.92044992857258   21.89767587073347   10.64234428685376
P        26.22370658129901   25.61840762885043   10.68542984935210
P        30.30776513067230   25.62014348669640   10.35690103038112
P        28.10148835426325   22.30678389877897    9.60299109054816
In       23.60275028003625   19.98621043100260   19.12155314104192
In       27.82364723771134   24.32356310580507   16.16325894021259
In       25.65523382679703   20.72457187317377   16.20588623986270
In       25.46476865103593   23.10163788156446   18.62766438441488
P        25.94880353608821   20.66578030334708   18.65281939565258
P        27.73260524991666   24.12521532343160   18.62866653827097
P        29.82853732000554   25.80024384255367   15.87810452704498
P        27.05233286471573   22.33087832921104   14.87819050280151
In       26.60338735374515   26.16733984766066    2.77051132985638
In       32.69084250859421   29.47570918840685    1.92181623701417
In       30.22474270177894   26.65632928854111    1.80441409316934
In       27.93762337160467   29.56171163097626    1.89508984345537
P        28.52281090357087   27.66872302194489    3.33169922908315
P        31.80215562484569   27.74915219049663    3.39012025415634
In       25.42689850413886   26.91454292687230    7.72135926638629
In       31.72587318675093   29.99703718685583    7.10079085399068
In       29.18790404174946   27.39073059684871    6.97878346621866
In       27.86411398830990   30.27944469191046    7.28386323930849
P        27.41726959730189   28.17449860552592    8.57415916683558
P        29.75098420552260   30.42925997785751    5.71122404990213
P        33.62307940874670   29.31270279947795    5.63895361822724
P        31.02383625552849   28.07016964964464    8.53319076668503
In       26.50355374301309   26.24294948920997   13.04882940749052
In       31.09023936732342   30.55465924867261   11.83184451353746
In       30.33119928973944   27.33808445794042   12.14526570672937
In       27.66217658566675   29.26856146676523   12.32903905423624
P        28.52649067880893   27.46946132111378   13.85613605801228
P        29.24185081386006   29.65969262596962   10.44041185950513
P        32.83384065349819   29.32411652053504   10.54531640135293
P        31.49603060678888   28.94488181332497   13.67326787142141
In       27.88125389184120   26.61238612931086   18.57576872259583
In       33.94945557099169   30.11570045639403   17.06804906680160
In       30.55178758281695   27.95698888695601   16.89631302156826
In       31.34614838805958   29.25257881920319   20.39585267954152
P        30.09507439227067   27.49497708611787   19.28162930525871
P        33.02634527072482   27.86980505349988   17.12587801776694
In       24.38812345386302    5.78080511346879    1.02119557062050
P        22.89883213547282    6.54365392331314    2.81007785829123
P        26.60366285208005    6.84538852582583    0.86707105451051
In       25.06720712076937    6.67122232518061    5.68063272519212
In       21.54531424071165    5.57284020784365    6.92605795405092
P        23.45878421556208    7.03273811449223    7.58231352035779
P        27.23099016914824    8.00535719058289    5.87098547664693
P        24.15289298238264    4.59095644598773    4.68773790088524
In       25.23599149474733    6.91755440569134   10.46401495698981
In       22.00623535732267    5.68973042169431   11.44023164053141
P        24.07909375103305    6.44087953506272   12.61709837283648
P        27.30585862272159    8.31012078568661   10.94667898664648
P        24.31276988026109    4.89463327658466    9.33691913615507
In       25.04077171358714    7.73971234436681   16.23252627208413
P        23.61425736880653    7.85142482172863   18.19222622581903
P        27.25424829430799    8.82352739250605   16.48270273242012
In       21.89757381374031    8.40316174598201    1.53011493179620
In       27.23224621028347   11.69919352457919    1.86083915897699
In       25.65364378799896    8.73500067010048    2.15386091058084
In       23.65330345352842   11.79119940222811    0.55727030283649
P        23.56094477153298   10.06383747052299    2.32836942420725
P        25.77109109106793   13.05969093901706    0.38233859768414
P        29.18290960625377   12.53114631287048    3.16059477935720
P        27.17683517739780    9.98013480478299    3.69914588685302
In       22.69572791567096    9.15946801197802    6.49396794743018
In       27.85858402318937   12.00649586894719    6.93732111880903
In       25.79888375262753    9.39631539802012    7.41524433108721
In       24.17126831607744   12.28903192518846    5.29455757916440
P        24.69768338492862    9.84484989281325    5.20327292573802
P        26.53552433662228   13.03903290494544    5.10551121256178
P        29.83880621781327   13.01086822712372    8.05030421239500
P        27.64037593271834   10.34922310832982    8.80387627642162
In       22.73272772731569    8.53289421776291   12.91627062175247
In       27.68783256025873   12.30879696429252   11.92634176554409
In       25.78252239833961    9.67579823921209   12.39059554059125
In       24.04805873212418   12.11750751524749   10.43985311127483
P        23.71783966079303    9.71507252966838   10.96382365386762
P        26.36613527788208   12.86056236450216    9.88595140989447
P        29.60918893413795   13.45238664958866   13.09113081314473
P        27.61989750166894   10.66097987812437   13.81404888690925
In       22.27755219819050    9.85482675685926   18.69648307865319
In       27.40058096066025   12.21174809836989   16.87671968823503
In       26.62174905632849    9.65074540035934   18.75357261010054
In       24.14930868600012   11.04535179259894   16.27090100525014
P        24.50699464198262   10.96893749784015   18.71217037130628
P        25.79134448484475   12.38880787252817   14.96023242450459
P        29.63492017580947   12.35147150549184   15.78000020314248
P        28.48480533959528   11.29182691368039   18.91278344566653
In       25.22373484464844   14.60931128520479    2.23114246863060
In       30.87888955337047   17.59058319758632    1.71387821466404
In       28.86461123458529   14.75440562030828    2.08415671271786
In       27.48386769481993   17.92611107241247    2.60451213109460
P        27.05298566197452   15.66476256324200    3.54262689140805
P        28.92851114637369   18.84601891570037    0.82164252238568
P        32.26198061224137   18.43253907688014    3.60751938778474
P        30.37466832200534   16.02947174774331    3.59635453778313
In       25.77695176617274   15.05206846294867    6.39211761915210
In       31.26761586783178   18.41820062461489    6.93491448101757
In       29.35530472322604   15.08950516201458    6.75699449585453
In       27.52985352219960   18.09433325207470    6.63056517275879
P        27.40288789403853   16.01160207492881    8.00297559187876
P        29.48800038128736   18.84822291285562    5.27765925650247
P        32.77998640575549   19.50278077717671    8.58589801328712
P        31.17905132523471   16.20734530336641    8.01990670097674
In       25.63305678036167   15.14514545864937   10.58552999534020
In       30.80505027510423   17.65876917374144   10.90078311104549
In       29.36335935294601   14.82866975601122   10.99672933563525
In       27.57065308015555   18.21541751083660   11.90730748559827
P        27.38495192102861   15.76698078395010   12.21836508338316
P        28.76659841720315   18.53744804266810    9.75792198834211
P        31.56720550559911   18.74739777326893   13.00545323281329
P        31.49876902715521   15.57706994349332   12.09880872448719
In       26.07122396721815   14.84972088202975   15.23127497742182
In       30.98568731813045   17.85417510770051   15.98276686144206
In       29.69212422044829   14.57282573736424   16.96900807382944
In       27.79859793906064   17.43286165713688   16.29688330449265
P        28.50360151894855   15.42657695233208   14.94379979687832
P        29.09166819185865   18.94413104393754   14.75790037780110
P        31.39288505324455   19.41079575247545   17.86660244968574
P        31.89586044018314   15.71560122451169   16.89380286473360
In       29.64571711027205   21.04391559100743    1.72763318962815
In       34.30369499073337   23.81134262445454    1.36536999197611
In       32.95734301267566   20.81273476900044    3.41876617413042
In       31.29624445680425   23.74406006348416    3.15439589548392
P        30.61415649521517   21.48763584375615    3.97287096987485
P        33.70061105618312   23.95363498112462    3.76100975135462
P        36.50916978363182   24.91972661332996    1.45799533910963
P        34.14736959190731   21.33818434988196    1.31892662303087
In       28.86844132625232   20.99084398824838    6.45671646924184
In       34.71726464075664   24.08906976709186    7.12993757280476
In       32.76669692678296   21.49435439598225    7.07859649993038
In       30.84324527163385   24.23043445292598    6.88394934503976
P        30.50558497912666   22.03177271848327    8.02857387605679
P        32.71772691347359   24.65394269423009    8.50052684829871
P        36.65757103682176   24.69853602328421    8.56403518517123
P        35.02524459398018   21.85981388914961    6.02664472761104
In       29.49524156612774   20.68238180557173   10.85795006846411
In       33.08231369014086   24.11396963910756   11.71507079218276
In       32.02109088870096   21.18702902126867   12.74551982035699
In       29.73233159750008   24.02359892061127   12.20166858123303
P        29.60346341301234   21.70668690073752   13.13317467164260
P        31.63675564352321   24.80540178884884   13.62915205636935
P        35.13155832134186   24.59561395166818   13.04496369068783
P        33.11169937857555   21.86891840402723   10.60368022301474
In       28.78340441042088   21.01031497172287   16.13896123830168
In       34.57174369008418   24.78271067744376   16.39379129140102
In       32.12593996783180   21.49849248585468   16.72117957928218
In       31.08335388249210   24.71012771430915   17.73539617008959
P        30.04051864996818   22.46774052739363   17.71378238339904
P        33.41384265472869   24.36203144131803   18.54132405875210
P        36.44735018173128   26.10468493668680   15.35140624970450
P        33.64856770491759   22.79393130195631   15.19507014832143
In       33.86176939977759   26.42737105582522    3.83432825269062
In       36.97135950166649   27.30129026342350    1.81369538561068
P        35.62562134467660   28.13881373522413    3.66152024167120
In       32.88222593485889   26.87984736917743    7.39578043448314
In       36.43654989259453   26.84232395797548    7.26911963439523
In       35.17344674909643   30.14250225041658    7.36511858477671
P        34.72159237803825   28.06071315053335    8.63466968554229
P        38.08713988189596   27.85427879765984    5.75590267282667
In       32.92651583457979   26.93062005293145   14.00623295349077
In       35.36982359431983   26.68371383760170   11.67687656748161
In       34.38176331001054   29.99361266422456   12.32437341091570
P        35.12823545961499   28.09858442960357   13.71978106480596
P        37.23859647883658   27.66491630727656   10.41569110162053
In       33.85093441396255   26.72048640860699   19.14962968325064
In       37.24593993724989   27.72697517515864   17.04009656593162
P        36.29550662984767   26.75483143151699   19.04110935794933
In       31.02703746088446    6.06500772995972    2.33383555178875
In       27.57156987106139    5.77972419058813    2.88092828264594
P        27.05686573801676    3.41302090219956    2.70637374884138
P        29.42540035846384    7.01541688547527    4.00524565712773
P        32.83435744180697    6.67900681342811    3.94727866583449
P        30.60877262522797    3.66261238153682    2.37846615555105
In       25.03709994208593    3.00743794756843    6.30611662816017
In       31.08483049524999    6.07270277509695    7.59296453649099
In       28.75109865015282    3.54325791088774    6.32700713292724
In       27.54366145704365    6.41250965306481    7.77366598502836
P        26.76831137076952    4.05684301299859    7.69738464071392
P        29.46360313513080    7.13371894577385    9.18706191170536
P        32.96015542850816    7.57625187189773    8.26215899859059
P        30.69683729812328    4.82705661558937    5.44998377435870
In       24.82316927082278    3.19198581089449   11.00886410409706
In       30.42848502967836    6.04542267868732   12.84153191758903
In       28.32883754333911    3.08141075920010   12.45479429819293
In       27.22201662779145    6.73081297415783   12.89993094883760
P        26.27035911468883    4.46315032647028   12.54247541818541
P        29.04314745824582    7.31129770465937   14.49078409981204
P        32.34283685014024    7.56594301319135   13.42855239165187
P        29.18987334829503    4.88839209677354   10.98692410651203
In       31.83541480477633    6.37850770184141   18.57882995500008
In       28.25823969321518    6.86929453800771   17.68743266622619
P        28.49547358580057    4.83828883372553   16.36253443427807
P        29.93113378477204    7.79545060803131   19.25796405814001
P        33.96467936786536    7.52675927843097   19.10644283110891
P        32.03266447610008    6.73559168787090   16.19365527071144
In       29.17712023544934    9.03532138973909    2.56057030909525
In       34.60832933815919   11.50322523059422    1.30837015150612
In       32.82296083514630    8.94599119838283    2.90905046488724
In       31.08805183363387   11.96472055730383    1.67276622218562
P        31.15876503815504    9.53835658989503    1.16361862357929
P        33.09843618761781   12.35105922756098    3.08586707666060
P        36.79665933271976   12.66881937888040    1.17771045951682
P        34.88085226494341    9.04886398381074    1.52416726098965
In       29.56281419385657    9.16281502942522    7.69944457528700
In       35.48515320893326   12.19406373968162    5.53546295358689
In       32.95840309093977    9.37065822424882    6.55557961937480
In       31.37866756516479   12.16260454598869    6.29778993724904
P        30.69722367205256    9.86230788329009    5.59372841748770
P        33.66861872612863   12.80691899888025    7.09407731482173
P        37.51227699303532   13.59725591210882    6.02427711598264
P        35.39037823448273    9.78923484239108    6.15729265850506
In       29.53830790951381    9.28686765744418   13.04665408986984
In       34.49661654452787   11.69280754428959   10.86406025615375
In       32.61228348019123    8.83972160365488   11.31790819069228
In       31.05288502431638   11.91041156139906   11.72996751124725
P        30.35352256022592    9.71464725513255   10.72761790926486
P        32.39591982129787   12.37475557436670    9.68484626572587
P        36.36125144306596   13.34098151890685   10.94765195752983
P        33.71615816407991   10.45987876614439   12.88268903286775
In       30.23024634413880    9.84014791186040   17.89182232796202
In       35.58125074779620   12.65312302561283   15.60332234349548
In       33.68726793245190    9.48873030970705   17.61681895519965
In       32.11807188296856   12.35599169577664   15.96309818114535
P        31.85458879807437    9.87892231817108   15.99534738775799
P        33.60972561509917   13.30046593349109   14.20631113440199
P        37.22891448632116   14.47329129035592   16.13673865134508
P        35.18504368716923   11.46933286280433   17.74812786684270
In       32.49329210698894   14.77356364305471    3.19385859348228
In       37.55997378470614   17.76920732354324    2.57032143259537
In       35.88103120805197   14.54850808326342    2.50810771371408
In       34.22718311864190   17.98554492637412    2.14071152092743
P        33.95020648968546   15.63544071025239    1.38726785691413
P        35.75420785098608   18.93229559619530    3.88015285172836
P        39.52905086193199   19.27009181754464    2.82767791504014
P        37.46978515554653   15.73796624047760    4.01808758120042
In       32.97639896397097   15.15876074137173    6.67419316854320
In       37.78455217982975   18.06429138557534    7.99425868598395
In       36.11193034808365   15.40324108333298    7.02023110129919
In       34.60554720220245   18.64653465566000    7.11718974859714
P        34.55668778930393   16.72356159468950    5.54255008383671
P        35.89764275218431   19.22379838320159    9.17456082934377
P        38.65682908519669   18.58026474083510    5.71562390909447
P        37.25608002560212   15.91127306636852    9.17652947228754
In       33.05242217371774   14.69700978749442   10.38562288200660
In       37.04639785625946   18.46438716830981   12.58777400279882
In       35.68034441461076   15.37491790678054   12.19320060435374
In       33.75365142027511   18.37329892206701   11.86883910585378
P        34.61915475510420   16.65530935822382   10.30165998197156
P        35.05621126970459   19.60953398703975   13.59386387845763
P        38.70737895238473   19.01923420771977   10.83148236861190
P        37.05748025145227   16.41825142139429   14.02684314511602
In       33.42530925963082   15.67411135995429   14.94922062660370
In       36.93195633221130   18.74131968333431   18.11732400148083
In       35.50045649475319   15.63854957258764   17.51337623649849
In       33.68245983275432   18.45557139889826   17.67242507857686
P        35.01611656787698   17.43320466226842   15.81239961171710
P        35.05999313124256   20.35476759539539   18.48526665360042
P        37.93785281918857   18.90213809298615   15.81986674876051
P        36.58036460441443   16.69078538902871   19.47423598552219
In       36.32140796021333   20.91293392297283    2.45881152304216
In       39.55620023657588   21.74372803799189    3.09932394431291
In       37.02714068067423   24.33560577534388    3.80139897115173
P        37.45491516897815   21.95833429389612    4.42906613727092
P        39.29955325951418   25.20752046997883    3.76631675876430
P        41.77555035928592   22.45542339957017    3.78480919718089
In       36.38605466985810   21.39587211638433    8.08059904052227
In       42.21423937863432   23.40795194743192    7.72686952350620
In       39.59854511761382   20.71500595014982    6.65955859619447
In       38.66048194858443   23.99363006286433    7.25772424308220
P        38.74319937461050   21.92611873720462    8.65722519133332
P        40.67556681580665   25.31368720965878    7.91863997698781
P        41.95195416370001   20.99085603229569    7.40008111585738
In       35.25961409441535   21.40256385852459   11.84150243080840
In       41.17282910064252   24.20863361786155   11.62340542767542
In       39.31879264431289   21.20546922639455   11.89893600502861
In       37.41041102819065   24.05010745289220   12.17223007443560
P        37.30531086810132   21.80011718763520   13.23808493890665
P        39.05485637416098   24.71909393738393   10.41305059786450
P        41.46061469734718   22.08445670477403   12.85786250949222
In       35.45528160689612   21.46093621629016   16.29868272271657
In       38.88544050483078   20.99485487713446   16.82508743823326
In       38.03110003006569   24.45132656879325   16.37296491759584
P        37.16617963910257   22.56827300409218   17.71462031980284
P        39.67503366727429   23.50137291626072   14.82838782467955
P        41.20994689748925   20.94181676298434   17.55221205308614
In       40.02555873960230   27.56711860397458    7.18971343090615
In       39.24718117382488   26.93856232301245   11.58407611059269
In       34.34688924881863    4.87357766224668    3.22306762899943
P        36.55595580316470    5.62533707437522    3.91303261394070
In       32.08936061488014    2.91469923482126    6.22653497228046
In       37.99505520728746    5.40141399816706    8.03293540984733
In       34.71619718313352    6.33589623443950    7.01836113468398
P        33.98938143863885    4.00478438912459    7.26826250938969
P        36.14932534446809    6.68113842338109    9.03818983520460
P        38.27824349309850    7.22654584095301    6.44184662195866
In       31.39975223932415    3.85497786349147   10.45221242646809
In       37.58743761122331    5.70235081527505   12.49973436387635
In       33.75486796015157    5.67182868266605   12.61821211966361
P        33.53485933780129    5.04369912825139   10.25089117937624
P        35.72708826014074    6.38137518591462   13.95008856222870
P        37.94676269453115    7.78136204405191   11.25534450886607
In       35.60771520962813    6.38844089101868   17.68775904472200
P        36.53635608079570    8.18791798393973   16.31280845830365
In       36.15448266362285    7.98835160314607    3.35475831358948
In       41.77845058239956   12.05540092302227    2.93753277063023
In       39.91395124437787    8.46738394942375    3.06054033347786
In       37.92847287440236   11.53514381053426    3.05975472841556
P        38.00138279030077    9.36111751077230    4.31235972012867
P        39.79790480867590   12.77377439934412    4.20016110588826
In       35.87236920263614    9.10096626201643    8.49153091456524
In       41.28037365901862   12.09676566500234    7.63021062166741
In       39.39239648476937    8.89382191538143    7.88718352956266
In       37.78532423521219   12.22133186673123    8.08844463049856
P        37.91461868555199   10.14453447395664    9.43934271979089
P        39.78899246646381   12.92731730486823    9.42067484352941
P        41.80419686819535   14.06301203031449    6.21736694573341
P        39.80645741348456   10.68936245338212    6.21876257761052
In       35.50123327230610    8.74114201947486   13.17253884719714
In       41.11169243472820   12.61028853603006   12.76035250813608
In       39.21801541173348    8.99287650873260   12.99433375716878
In       37.78402572536015   12.16831247481388   12.61324445528506
P        37.31715785764092   10.19542668243721   14.05601799764117
P        39.25542527591536   13.41935092635083   14.20556344071120
P        41.78931665166068   14.47938848956511   11.29771933208252
P        40.51742252519551   10.53172230673665   11.58714421135841
In       37.09643722926859    9.88538171418304   18.02609881725873
In       41.57368394216674   14.38308259315512   17.20159039250304
In       40.76452098198569   10.38070313093764   16.69835308706549
In       37.90870101522001   13.17363807108512   18.15451069853437
P        38.52935415115040   11.33881131486274   16.58803303343687
P        39.93598186385779   14.34517321353827   18.97834661053626
In       39.46696589148056   14.83745868645043    2.81932941977909
In       41.25258994705930   17.91790868076162    1.71297206649153
P        41.45920067604767   16.16693891502193    3.39416153531721
In       39.44018556613430   15.10886128776887    8.28588586859110
In       43.23308709954065   15.30054438590988    7.75758966438415
In       40.89289461347089   17.79837675897787    6.54242362537085
P        41.36862844520650   16.62278661451870    8.68153432525774
P        42.90995990919548   18.18276708346777    5.19078729754077
In       39.07359428850577   15.49621989016555   12.83134557138295
In       43.11777751187751   15.75871885479126   12.89106037894945
In       40.81304238606491   18.35882910260623   11.98034987161789
P        41.03251468766402   16.69887047723114   13.80583856727555
P        42.40222202083619   19.04266278133080   10.23476183349135
In       38.95881183977255   16.34777178423415   20.04119584071916
In       39.88172266075924   17.68443761423513   16.74727087363143
P        40.07521930394791   18.31063074801289   19.08576312362540
In       43.95748480850311   19.77827847679724    6.68564583848462
In       43.16560718381988   21.01064202705793   11.44120935845560
