42
 energy: -2.961014581276 gnorm: 0.000117500809 xtb: 6.4.1 (afa7bdf)
P        12.38941893575481    6.93220036365823    0.69905727211655
In       13.11560570850658    9.76044751501115    2.27823492544315
In       10.21821054209364    7.93082132677130    1.30353574089779
P        12.86384181835557    9.65248828579913   -0.17793787536461
P        13.11146835453281   11.70218628807479    3.82387530045730
P        11.17966297168259    8.70683688815882    3.42114440295378
In       13.14821585879912   11.96307742462782   -0.88172973268584
In       14.88475182663383   16.89533352189796    2.24106071821015
In       13.78285700311498   13.68761148792940    2.51130998270115
P        14.66060389226587   13.51560346919168    0.21745046872862
P        16.57927511360057   15.32317926434275    1.36619856401609
P        14.85304076604165   15.27243217410511    4.09398504075053
In       15.06222570380896    6.64442053407098    2.50132740591558
In       12.13069161175122    4.68225838703460    1.66814379072446
P        13.25705706746896    5.43763207481982    3.71053621819874
P        16.83988502883202    5.45125078588978    3.75163657391755
P        15.02759256731899    5.83649546455622    0.16446327375023
In       12.68298913806059    7.48876612141386    4.95212158839922
In       18.35734067403025   10.15618512437908    2.70340426388914
In       16.92900122905355    7.22387214294461    5.46796364511905
In       15.33897638609373   10.93992345847836    4.58744034951108
P        14.87844964664036    8.58813627919324    5.23085978131992
P        16.67756991442534   11.98684326901999    2.76242130164530
P        20.24985782539194   11.50069536245461    3.55867101274333
P        18.68165573755774    8.83148318497157    4.77455087875290
In       16.92510779345355   13.92635254678372    4.30202500950479
In       19.79892129311560   13.63732618735642    2.40331104936294
In       18.32573210190009   16.75313087227616    2.36436577743592
P        19.03322317816274   15.22212940844291    4.14971298717620
P        18.38815377702016   13.26289300761911    0.42050331062229
In       17.18883926130922    4.78859959522513   -0.26304781346916
In       21.60987615649052    4.49906698495794    1.88731945142801
In       18.66673186252385    6.56404721438233    2.49955029623543
P        18.69365262788248    6.67682421009787    0.03138752745061
P        20.50441352486930    5.53219214360633    3.82534900162278
P        21.52543357779242    6.82237384336399    1.06632691044469
In       20.90050696694695    7.73267667209687    4.87154010248414
In       23.77364796665973    7.26130270933658    1.98123121824554
In       21.87176462170992   10.14953391509115    2.27621084745788
P        22.97893069152033    8.61345161257410    3.87007180209457
P        20.72661457018598    9.44199886943195    0.21485555166637
In       19.81180923500575   11.55259856795752   -0.57505792181783
