116
 energy: -8.202563063791 gnorm: 0.000228764823 xtb: 6.4.1 (afa7bdf)
In        4.60432018773124    7.02619986767915    4.31571526365130
P         5.19131981860992    4.73041749532047    4.74793306104685
In        4.56495824748220    4.80988724183237   10.05837370366825
P         3.36396661548747    5.16664809879122    7.95832174938121
P         5.64917524728499    2.63155006864399   10.39297436070168
P         3.34205997034806    7.05436396355142   13.36525354491292
In        5.06853178712598   11.43754980020133    4.03417935977334
In        4.86614324667111   15.75481489573533    4.37014863174677
P         4.54831642581177   11.51669244249367    1.67155824360651
P         6.05688611784271   13.62568092861457    4.72187601358275
P         5.81779673780611    9.14757484979254    4.67429749138755
In        2.47112275638517    7.39797186406703    7.62266746328384
In        4.37638368301264    9.39583194028192    9.95729496155842
In        4.58543293387999   13.86966837842601   10.01712531237126
In        2.81843651674302   11.71842689538661    7.30660470968043
P         3.80410552201481    9.47068129621779    7.54226300178052
P         3.96850091368570   13.87501363130000    7.61526846994892
P         5.44707791930254   11.57665148336217   10.51988771497951
P         5.31441731246757    7.14537857779593   10.45715988881727
In        2.84723306921166    9.39783871260089   13.45580989748543
In        5.05233240557641   11.26643189305669   15.76746217537771
In        5.30248095727948   15.82081470359104   15.87495600753734
In        3.10651662000228   13.65554728480146   13.50819477941933
P         4.20787604104693   11.44991812712632   13.43391862031636
P         4.27004492649233   15.79305990561451   13.64207625377560
P         6.12038316564546   13.48310304930722   16.15012175315810
P         5.87748319927170    8.97427937455440   16.10966312623500
P         5.99330494743020   17.90978765670586    4.47108215815402
In        2.82969765369551   16.06286295295819    7.66808173138712
In        4.76365857727672   18.33418139743278   10.09296962118536
P         4.03849803444537   18.17668080574997    7.75000818272779
P         5.83528255859060   20.49485158451493   10.56214885295925
P         5.63773952672361   16.05632512054981   10.60176973738873
P         6.57516310629955   17.87154778919871   16.39085682757087
In        8.23088001289923    6.51499017559495    4.93493371055372
P         7.71164724070964    6.62767404000102    2.54103899165393
P         9.92417738056902    4.84625816969596    5.46882963217934
In        9.22817687255106    1.58054419236734   10.63331339094461
In        8.01692776038977    5.06527247497922   10.09878573604136
In        6.52057535175695    2.45889474036119    8.11737170736029
P         8.83853665318537    1.68108533206785    8.24622496419092
P         7.04892782619440    4.85165154356412    7.82841254479127
P         9.84726299420662    3.86024805114069   11.29510872202314
In        9.07608056554556    6.46958322792564   15.22384358212186
In        6.26168162001626    4.70263486591598   13.75415382557970
P         7.69481615565986    6.60423211536438   13.16623082600193
In        7.13155365515092    9.02206865319770    2.56043560263362
In        8.31849775738133   11.17181471309460    4.84462956002960
In        8.54958834945151   15.83394361645431    4.96939477062393
In        7.39750550867850   13.60629779024380    2.62040985357819
P         8.22179227769805   11.26339241813463    2.36524494821402
P         8.59444228713412   15.78703069258687    2.49809292717733
P         9.15444165767869   13.45819536719723    5.41944524537585
P         9.09603591309467    8.83325883712356    5.21326831832032
In        6.14101441002870    7.13293677552942    8.12833972650001
In        7.78685518580298    9.39709885565048   10.07954953730958
In        7.90916431157333   13.77796540209384   10.23882584539761
In        6.27654590799058   11.60037747889544    8.17801228764017
P         7.17061136419205    9.34114227257716    7.67478656392926
P         7.30594777218004   13.82554700673561    7.82966933080534
P         8.97326255422394   11.54243927697700   10.46124577434781
P         9.08450972722384    7.29982236321414   10.35763480281293
In        6.65379796817066    8.78169509704552   13.80038188096582
In        8.46575705296273   11.07468569474726   15.60067112074477
In        8.67043625315991   15.46394346578961   15.64257274235212
In        6.73985589286722   13.47664716001171   13.75332311063102
P         7.40952359235428   11.11366862273272   13.34688770455541
P         7.56054105719223   15.80408661774408   13.43853158934795
P         9.71771454657769   13.21573557257326   15.68517955567103
P         9.53618602300277    8.83991162457831   15.69952288127238
In        7.23970337984294   17.83607041448220    2.37278158852675
In        9.28994802603497   20.00091373949796    4.83295439867071
P         9.88424962942141   17.80524015958853    5.73695944280146
In        6.51521610816643   16.13476596794192    8.28275170465103
In        8.30279883666307   18.24555547351149   10.29804678436737
In        6.77252049295579   20.62831989687538    8.31781814859099
P         7.59064463959916   18.33890279224605    7.92161185703367
P         9.30977510876847   20.44920489061685   10.73949797168681
P         9.03212769662807   15.91906829852175   10.80489438204230
In        6.96046232944712   18.15502556682649   13.98339347128485
P         8.17160914057955   20.25346854181079   13.71275859367381
P         9.95192804749479   17.53393850312840   15.34489477785731
In       13.78566106068173    6.40569801647470    4.38105407917845
In       13.36778012420163    7.15097220503476    9.28182077776320
In       11.21464247268023    4.36927549636138    9.31008051305928
P        11.82886605987903    6.10295616311091    7.65453879370163
In       12.72479562678296    6.47080391437717   14.32920899323292
P        11.07798035411063    6.87454223338036   12.61445912888191
In       10.44053959019654    8.38167277951239    3.17725819925490
In       13.23676469692071   10.11368073891181    4.31331106628486
In       14.04988940226689   13.79511547985000    4.64844029330672
In       10.62172039322988   13.18674919390193    3.42226313791871
P        11.11144007607495   10.76100375337526    3.19908924176910
P        12.31640597369245   14.98735328897902    3.39670549577367
P        12.82803241046465   12.03308698324549    5.83525464606000
P        12.67871778273373    8.11692100154940    5.70290375600171
In       10.21426059217231    7.93112170317547    8.23698473925806
In       12.90782122398553   10.74395320244047    9.04852036529998
In       13.27518277783177   14.38695735013327    8.86697211679549
In       10.05767242272063   11.96089151122948    8.27282305414417
P        11.27627570889605   10.00661099749956    7.27819659115522
P        11.27859713114913   14.00425865739784    7.44012968967071
P        12.41911949882419   12.73453387772592   10.48639017442971
P        12.28179314462948    8.90583154955753   10.60819621528836
In        9.95051217495835    8.99478415674962   13.27047830147965
In       13.12185189086922   10.74018698739453   13.81599265202006
In       10.26343793888989   13.09970389661751   13.28750934254069
P        11.18376732954520   10.96665401478791   12.30591098341184
P        11.93955776077305   14.78758657609063   12.59807716463666
In       11.81406132541832   17.18808870091969    4.33094686028693
In       10.13059180315741   15.89214418008380    8.59315731764306
In       12.16643205550095   18.28681653816068   10.65761784370747
In       10.27095647829316   20.51904743751802    8.50438348964652
P        11.08786843951076   18.18164966010600    8.44487162934339
P        13.68581096299102   16.51597308485596    9.99068544087431
In       11.88672667225999   16.56681204327666   14.25255880079054
