132
 energy: -8.672953684068 gnorm: 0.000556717700 xtb: 6.4.1 (afa7bdf)
P         7.39771462254633    4.14232132392852    8.68688299124883
In        5.22143871857588    1.72489703514140   10.97305721465858
P         5.91767901347402    4.60308440798640   13.29695737113497
P         7.60949118949197    1.42404515420247   11.40567123169699
In        5.09515360372489    6.72874250448354   12.49588493621009
P         5.63998164888571    9.04156774519407   15.71382176311518
P         6.92500184784459    8.29522805104225   12.06881794870712
In       10.80753902065481    1.06607140599979    4.51866032084687
In        8.33636904494113    2.90501073005194    6.82616195342861
P        10.07010091198389    1.17649481609270    6.82767703678206
P         7.89124409078394    4.34374381721306    4.90033918186642
P        10.59842595489213    5.32946911825446    7.81072064824029
P        10.90426881045355    3.47355943547753    4.21096903474454
In        8.20118594134770   -0.42319359351512    9.92505990519252
In       10.35961152764476    2.97478052454561   10.39338238846003
In        9.64454920834106    0.47911824953613   14.31156292758985
In        8.04585906115139    3.46041507815922   12.78904814890097
P         9.13600567160852    2.79780366820701   14.89914640236085
P         9.64543055086060    5.01330814936347   11.63902109031225
P        11.86240993675255    4.38018048015471   15.28859547430032
P        10.59304405591553    1.20128299954888   12.12524758296666
In        5.62220687925684    1.87841150382420   16.47909506295881
In        9.27150813846461    4.03847569938610   18.04351648024788
P         8.66656183924061    6.43321513415553   18.10029169625128
P        10.33398550819251    4.58010336637051   21.07917975311797
P        10.85129662300795    2.14946882746148   17.93402925079749
In        9.24272470170495    6.15377950868275    5.91459812826478
P         7.74329133636431    7.82555526598292    6.90042142058486
P        11.08236503315583    8.99575655658095    7.91211147332654
P        11.19187527052689    6.64323005302191    4.42161850607302
In        8.56425344309935    7.05068685188983   10.76143859797356
In       10.48899767888339   10.08645835499380   12.33400798064580
In       10.59946654322883    5.90469170594450   13.78697643920563
In        7.63411441545628    8.39687078474977   14.45207923748460
P         8.40488856893361    6.09107533411584   14.91517851729973
P         8.88582891253742   10.49938212513375   14.09572871097488
P        10.91959576127631    9.00667243317131   16.19776111610727
P        11.66017717863518    7.97016072487144   12.83426173246294
In        6.22514161930836    6.21690768091884   18.18677294868923
In        9.95022836868512   10.16001677433843   19.55836592619518
In        9.18650502259411    6.67504887268420   20.52242839918058
P         8.17475850767171    9.65144644004972   18.02162643826259
P        11.18469521332096    8.17484043920713   20.33886123417918
In       14.96830418498910    2.22445723611472    3.76639265056214
In       14.47474067389411    0.45394576030736    6.96632904361684
In       12.09480589740096    4.09876398217474    6.26839603687385
P        13.04934589445544    2.28734320755405    7.64112269568088
P        14.05150522297820    4.31912382151892    4.68203562140768
P        16.46625671455875    3.22822994048431    8.17580254101142
P        16.28679803856046    0.96975195053485    5.40590666151302
In       12.07040424015285   -0.49639352777464   11.13661502697556
In       14.31087817890208    2.69172912676388   10.77707183053234
In       15.54708021074529    0.09489796499560   13.47173980643184
In       12.04334821769596    2.90753077209718   13.29899636419916
P        13.44277060981910    1.06887590764317   14.18229193859246
P        12.88946898630707    4.55708108261115   11.58596746389149
P        15.07806898379187    3.78572217618912   13.91652376124891
P        16.25466727218150    1.28705618065438   11.42172999774480
In       12.05584129008782    0.05823062322556   17.75227841713557
In       14.87683006420171    2.95671568416706   17.22285418125882
In       15.20381225809542    1.17470284217320   20.73424369227258
In       12.03092149363818    3.27768739585817   19.83428652670078
P        13.54411704373571    2.66022259781906   21.69965767509312
P        13.26571258725294    4.62652583724566   18.07812091272656
P        16.78503303750014    4.40790682064665   21.02764724930125
P        16.37207440733145    1.56366646078963   18.59228482164863
In       13.21465652239106    6.06308682246487    3.14939203324272
In       15.88849473263554    8.99124887840469    4.36295893197305
In       15.58118476308749    4.89454229931930    6.56873740097487
In       12.42387745168008    7.65815679582282    6.35449341820684
P        13.99488839823196    6.36599348280563    7.76322064433813
P        13.58877941473458    9.36465976434016    5.00346308627690
P        15.83023165175283    9.38670964358700    7.99165788208672
P        16.58255499579284    6.81967327300189    5.30523892945140
In       12.25102008738789    6.80131649602673   10.72598620136609
In       14.27225224698299   10.03958747883387   11.45455049747466
In       13.94458536591539    5.91771577260475   13.43831721717447
In       12.95685961836781    8.59361158431842   14.90372750015691
P        14.33158499704652    6.68056507063338   15.78825190037098
P        13.80586974419305   10.62001003243706   13.76445138565932
P        16.20516690678818    9.73856369447703   16.16096112674925
P        15.00142342729719    7.77716989189729   12.13004722268796
In       11.88238646658049    6.63579921421888   18.52373066837951
In       13.86506387492635    9.37285151507069   18.80859016534444
In       14.68596721201128    5.25678760664192   20.06147831756153
In       12.98042113156737    8.31458781130337   22.05660049037349
P        13.30025509691797    5.88884480418518   21.98201993118116
P        14.01997902746190   10.30893955726748   21.06295091724371
P        15.24305029099949    7.29991988674505   18.67157565578724
In       21.53022249463987    0.96807004549234    7.17576895397086
In       18.01885198830425    2.48190804420437    6.39577352411390
P        20.22943471826978    2.98873413059380    7.45346841742484
P        18.35850718592736    3.86452863314647    4.36316442256796
P        22.00502980512968    5.69583752394413    5.63374948819223
In       17.25367462617563   -0.27943114610063    9.84014900720224
In       19.55625705601067    2.64861381387990   10.63755906484618
In       19.29743734987932    1.10128481876390   14.92622594872115
In       17.15278653863623    3.25212962195195   12.70726569726319
P        18.41385263100087    3.36259660907685   14.81924364365640
P        17.95487527299091    4.55715185578496   10.70039351418212
P        21.16082680226461    5.36206694800481   13.84282662780996
P        20.21537947121353    1.35445720907350   12.64823022591423
In       16.83003958928402   -0.58325766827667   17.51721959240844
In       21.27494423032042    3.68804602263450   17.38926233539076
In       18.15260077705216    2.98433953957237   19.59925796985082
P        19.13127627047678    4.67347302619473   18.04538154968473
In       16.84984849053252    5.44612924689944    3.25635656483076
In       19.57335371123274    5.70489642445043    5.48920929561660
In       17.38005766548407    7.55418103308250    7.56375418301719
P        18.73869232152369    5.48272129101203    7.80152049485546
P        21.05449620522360    9.27545328450223    8.11137858481163
In       15.92723778567061    5.98690010093806   10.68571028075828
In       17.99919967137240    8.84680973968708   10.79970412902647
In       19.12041542349683    5.84929884605958   12.55056217255522
In       16.45040270765902    8.49408338192471   14.05597978115079
P        17.34662240602392    6.18988344200128   14.25483828917272
P        17.76210751379622   10.17963203301155   12.81709101380640
P        20.42072789284864    8.27996682223539   14.81998091097235
P        19.96238067487965    7.32624945870651   10.69026791919466
In       17.14018078233495    6.08716161209616   17.61568248642166
In       19.05192164483256    9.59475569005416   18.44589891460158
In       19.67873497539823    6.29628938093914   19.87065307383934
In       16.22744739790165    7.97759826806573   20.88383758807813
P        17.01326204824046    9.97770576335739   19.71196980905341
P        20.09127934740692    7.47966219383992   17.71689419138332
In       21.17270150866124   -0.71523330287107   11.76830955426806
In       21.88723893501965    3.15053918399513   13.08990735429863
P        22.68849347005317    3.74819532844238   10.85567936024956
In       21.70426220577680    5.75453218206516    9.92439255528254
In       20.98830004575663    8.72598256774459   12.49695249473726
P        23.32908680813783    8.08187282060603   12.36025077269876
In       22.54009663115012    7.39219840903766   17.67346720962498
