20
 energy: -1.156595320748 gnorm: 0.000479869831 xtb: 6.4.1 (afa7bdf)
In        6.54327158660779    3.29134380972616    2.65178984755303
In        6.39061309457924   -0.45886777448838    2.87415886192688
P         4.42081595299654    3.12709367464358    3.82989458863334
P         8.41880810365439    2.69122027112476    4.14954729403611
P         6.44428910292492    1.29283001486799    1.20912494279350
In        6.65663680570176    4.21952373724405    6.90684492087382
In        4.69530188721003    1.13346092179189    7.56855269620088
P         4.49618342436386    5.12088140931198    7.54351047523135
P         8.42756962073704    4.18320019030080    8.59920089091433
P         6.47741620908399    1.88015341620248    6.07260728133427
In        8.41914632858601    1.54209269051763   -0.20091995737778
In       10.48853609758051   -0.46071445433739    2.87209907555421
In       10.29051930418061    3.28648771917054    2.64342324384124
P        10.39617713391980    1.28632120368399    1.20524784781141
P        12.41657245914875    3.12947301199935    3.81663804933503
In        8.42407014392704    1.05570874867213    7.37702414771955
In       12.15234348225515    1.12334199224745    7.55335130302895
In       10.19746329051339    4.21467958211924    6.90593447507915
P        10.36632070441497    1.87678467448238    6.06523803995311
P        12.35996647162610    5.10167689970564    7.55233197555194
