26
 energy: -1.494155508428 gnorm: 0.000476177591 xtb: 6.4.1 (afa7bdf)
In        0.11427246230414    4.79657084661737    6.50741578755075
P         1.85179751193080    4.23884545108437    8.06377608693193
P         0.60432161299966    6.02342603184816    4.46892817648686
P         4.40599625481371    5.29389554033620    5.84529134980334
In        4.50656354784304    5.05545603962887   10.70368372562639
P         2.21307933236683    5.85039305709315   10.96508808069358
In        1.75810435362419    9.07894178252485    2.40991930624091
In        2.71726986327345    6.99418978743539    5.30938762571903
In       -0.15308188940443    8.48570982698232    6.60046026030603
P         2.03847103694557    7.90392548891818    7.52010634625878
P         0.76209206942788    9.56918435060324    4.59548984029065
P         4.94040334301734    9.79697433545615    6.57265163963254
P         3.78108624270261    8.17250788221435    3.40145272257397
In        0.49331525235154    4.21365694769001   11.53852467522973
In        4.02963774517004    8.69532682716854   10.50539180256400
In        2.28815315419129    7.05160577485980   13.13859894713438
In       -0.40721814373513    7.83268075049316   10.78366313320089
P        -0.12725772935087    7.48875661254295   13.17410110962624
P         1.60969902907390    9.16660308240675   10.21615619449654
P         4.35311327135064    8.34918530107488   12.89127067291005
In        2.85117707995551   10.50951657077248    5.54906958377261
P         2.47222780319803   12.91253558036397    5.58360545428310
In        1.00150829733659   11.34268993297508    9.22087488790942
In        4.82425723868861   12.28545319392784   10.08379060058609
In        1.61490167454245   10.20545106410770   12.50801092118898
P         3.53422708553421   11.63961544128554   11.99933106880514
