102
 energy: -6.200940435709 gnorm: 0.000536818989 xtb: 6.4.1 (afa7bdf)
P         6.17407065954896    3.84450761558143    7.32498650238686
In        3.78635246634529    3.12326073853668   11.20804595441119
In        4.34579020340481    2.39085924690530   14.59813557980560
In        0.90418960138523    2.86652988101521   14.18142715600457
P         2.49277043036708    3.14911129172687   16.01291722201390
P         1.64072532997300    3.98465931549998   12.10013104454140
P         4.64466583418796    5.88327184197809   15.37072010918210
P         5.77524957601961    3.13064389130139   12.69585618018275
In       -1.27339142689437    3.01322087284293   17.94274193183985
In        3.11482344076640    5.68666674354404   18.26781841271732
In        2.37195220108239    3.09125271760123   20.13933903962950
In        0.62935555790508    5.71539136422389   21.93596696904060
P         2.59197141513057    4.28584012214829   22.25007032736912
P         1.40386079502872    6.69672041623596   19.77722284981188
P         5.38380914174371    6.27833942308821   21.80085217912326
P         4.30119119972584    3.50920890315950   18.60394902329459
P         2.53342204855902    5.33260273543688    8.62742923459532
P         2.51856583654206   11.56496183032208    9.04747678226154
In       -0.19903905897516    5.44773274826010   11.43314065936589
In        2.73306906661074    8.39181193322504   10.96403044405726
In        3.07728193650383    5.51198175838995   13.49610402709775
In        0.27046137567430    8.44604806177110   14.18478158221440
P         1.20579453846216    6.32263793515517   14.89580220713893
P         1.20917568772655    9.78215687484650   12.32526516561011
P         3.75504062462013    8.77354841516562   14.46780747219148
P         4.32134182796614    6.61188884494234   11.60957187915707
In       -0.53323779273666    7.21622657964557   18.37005042982237
In        2.78899605855007    9.13906457531074   17.94166453372975
In        3.39331136622166    7.53498196287766   21.05380105686513
In        0.27662766241940    9.15502587351171   21.68288848793680
P         2.17600452606993    8.40652481745251   23.03920862501844
P         1.47945766158867   10.17716440304892   19.76734612658634
P         5.25153262056012    9.53056716951413   22.58485535127594
P         4.80023528436286    8.35118099059221   19.13883968599388
In       -0.28103422161575    7.11775841698252   26.02731297758203
In       -0.47668883251213   11.40243910891444   11.62520343062088
In        2.85986283459127   14.52982342457918   11.65026908749833
In        2.99638222948080   10.98081502437364   13.64113591080789
In        1.06157696987964   13.30866147221289   15.52638701723137
P         3.02960316050383   11.93671078173686   15.93047933665088
P         1.33272671545298   14.63168763108304   13.52160135615371
P         4.57533883941179   15.12307569315047   15.55311535034448
P         4.17038429878434   12.47027149167002   11.99377606735552
In        0.83871445957327   12.52413340137200   19.48007584923279
In        4.32060858278751   14.50727385105411   19.48035927951112
In        3.49297170937243   10.65287401564226   21.22779276782591
In        2.19597418213954   14.01951299602442   23.04626801318479
P         2.17254898205528   11.59795768564432   23.08765876993728
P         3.69327756115028   15.32477801376945   21.67050932201895
P         5.54847096658822   12.59168905728900   24.08843665564787
P         4.90343677023667   12.12706732086378   19.77716137554291
In        7.35169020323400    1.90491428843264   11.28039414872659
In       10.19300691840398    4.54657882424959   12.39900557833657
In        8.02757768745613    1.70355558395573   15.37637941218786
In        6.62452446871868    4.88248558458111   14.27986359613695
P         6.98720215941452    3.64990898516985   16.40112791491871
P         8.16074362969548    5.93885942359377   12.60323460870048
P        10.07608839635947    5.65539122364103   15.87566824000581
P         9.69123537556897    2.79055931993927   13.99145693519224
In        5.04608366561322    1.17050851682542   18.39075261566736
In        9.47013133751342    3.05485162521408   19.07994511066978
In        6.96900943254096    1.09894069066791   22.26102551220114
In        5.73064247288148    4.15811674518734   20.59049218543733
P         5.00554839942222    2.53325105069220   22.31934609390753
P         7.78264479654503    4.84702608321789   19.26823225516132
P         7.93268886202129    4.69860805909002   23.33207649874391
P         8.95198179418676    1.70682296695017   21.01943587073315
P         5.70940141397796    8.22496650796166    8.45542805946438
In        6.46884119304561    5.66128713216779   10.81297571771670
In        9.27455107982063    8.45804009173376   10.69590592360728
In        9.06766833054485    7.37962675015553   14.45076133398236
In        5.73308651104839    7.92491982616153   13.25398098606582
P         6.94423164020235    8.29799098444540   15.40301489150145
P         7.20257752294216    9.28781336126906   11.75906843002503
P         9.71226708036935   10.59189265810751   15.71152060142635
P        10.56717994530180    8.42489116502892   12.76248349900339
In        6.41643450612525    6.66679527319245   18.28687533042909
In        9.62285709170596    7.76193966714619   18.55144779371620
In        8.78336905942282    5.84222837717807   21.34956310649562
In        6.66929305050785    9.25013926473433   20.55370876231920
P         8.64367301183268    8.28991967175717   21.68622584568738
P         7.97005277650891    9.61327277976360   18.41144407977046
P        11.69469949682661   10.58125413118752   18.78348318721540
P        10.84145152654574    6.23603655118155   20.02115457188726
In        4.45234571187925    5.65848185166480   25.63531916208219
In        7.92533206700562    8.87802191600390   25.52309519401631
In        6.01623815474059   11.26894267290686   10.88755767105448
In        8.88826964638315   13.82566363042545   11.46188514761930
In        8.29477519084550   10.53621293038506   13.68544383435344
In        5.39478051664956   13.46217375522673   13.95552695999161
P         6.09060966295975   11.18230444375694   14.62596396729600
P         6.76444742080291   14.64216553215680   12.27453003392384
P         8.61115422807159   15.27690585247218   15.41737903206160
P         9.74288706394490   11.63334813673469   12.01975105745220
In        6.07122504929949   11.11550675710414   17.86190213327037
In        8.20459071642277   14.73548163067449   19.28984948527075
In        9.46888642517476   11.28058339009522   19.54143093440871
In        6.37724169509262   12.51235280598291   21.78579885634836
P         8.63908026154712   11.50457283263328   21.85738020985814
P         7.18529499010353   14.83153407027397   21.47877768977432
P         8.94776324606090   12.97091886235651   17.80003257856531
In        3.46121271245639   10.09069698344355   26.69127055613960
