142
 energy: -10.545381945624 gnorm: 0.000214037732 xtb: 6.4.1 (afa7bdf)
In        6.31039438976378    9.18877054471114    4.03231046628820
In        6.26626111620635   13.72272879693071    3.99436830188462
In        4.79024328559031   11.67055040251517    1.04103085801766
P         5.45199217543325    9.45232838810717    1.75789421941787
P         5.71276155921767   13.87941582677242    1.58738230800091
P         7.23679999934816   11.46464328373106    4.42255360007106
P         7.30052952729433    6.93375658755500    4.13562329155673
In        6.33354009797539   11.16732373408022    9.66784559347095
In        6.45810174655243   15.61815174204052    9.99319040197747
In        4.47060336107066   13.67472902568383    7.35266182083781
P         5.48635255407100   11.45979877386830    7.38100777316701
P         5.68106377191060   15.80396466563986    7.63917581068211
P         7.42765910413894   13.33416927399589   10.21085870226838
P         7.24840905184852    8.90116966008597    9.96551196197763
In        4.67413943210287   16.09213901700535    1.34495936035779
In        6.20727199044852   18.23378233411871    4.35881562162185
In        5.71198505662444   22.46183886852780    5.05925420731805
P         5.41610144689367   18.29437010209580    2.04495017797036
P         7.12768025833869   20.44724209002252    5.05292484406294
P         7.16468459269909   15.95160377858066    4.67703607442075
In        4.49867586515925   17.96614820143298    7.78447580177861
In        6.56954225241553   20.15660621860610   10.35359870086942
In        4.95995737811048   23.34312837721743   10.42997583203957
P         5.57335518869890   20.12858839028150    8.11041802445672
P         7.25950529213073   22.52248432785068   10.76842394916391
P         7.46512606846608   17.83258312747678   10.54290253826086
P         6.61893030976674   24.71147920342117    5.30594268494549
P         5.50430414895491   24.18062048354984    8.19625684383977
In       10.02055541134649    4.55190322093085    3.42892842380690
P         9.33463643102492    5.00066148059621    1.11559192586143
P        11.02344271767152    2.30304464861679    3.37754555401517
In        9.78394327241406    6.39491079224796    9.29257804412082
P         8.82933635944063    6.63730254753600    7.03864800413410
P        10.71894759801972    4.12400078047586    9.49048894445998
In        8.15007782609572    7.03526749088463    1.83403212611438
In        9.73046607895155    9.12464245602447    4.03695124719125
In        9.62786160489513   13.70335863935389    4.28301728646833
In        8.15454426193574   11.52150970332495    2.11817390220354
P         9.15133028765856    9.29444907100813    1.63839236968938
P         8.99215878046861   13.85912854669636    1.89622074552645
P        10.61123144734931   11.41521024361922    4.46969595149303
P        10.71165103855165    6.83515826818620    4.14847397492046
In        7.96987801241272    8.87517952741090    7.62163237148021
In        9.84055079677934   10.98527555551139    9.65432196422837
In        9.89626277864759   15.55332960451656    9.94430316848233
In        8.07804183751253   13.43717473595937    7.82526728769856
P         8.93647018753774   11.15075234564309    7.34839857664338
P         9.01621769503619   15.73237004589320    7.62538073080369
P        10.78612197138252   13.23530079567512   10.16363436738814
P        10.68579008994152    8.64722272163160    9.84186986600658
In        8.05950904179507   16.12320588441424    2.36475372665295
In        9.53558302378084   18.28790462762339    4.60944784433092
In        9.55467906045589   22.87943351823226    4.94964298284409
In        7.99996097602653   20.73824309026862    2.74251588040376
P         8.88843242301651   18.47007463927730    2.22785865043299
P         8.80820769128431   23.09179339263148    2.60255538599283
P        10.46808447624595   20.55754514017898    5.04933332828118
P        10.50919461370511   15.99500100999442    4.72375357114765
In        8.09333930075374   17.98136397584911    8.15436937900735
In        9.91438879115415   20.11665085803349   10.28694935533016
In       10.35197874194051   24.88016977033792   10.55938705980189
In        8.26195058032350   22.60589215233852    8.52056997814813
P         9.00159927610392   20.29170251143432    7.98036489298910
P         9.20363730736461   24.90680165128240    8.35154927346026
P        10.73477388309753   22.42297954982545   10.75555290344743
P        10.82985349127071   17.80518979663670   10.46133433216114
In        7.56710701918586   25.15738085542537    3.10333660213346
In        9.77996567592852   27.46844963125103    5.75771188944886
P        10.47116483147966   25.14551049692469    5.45479196311811
In        7.03124844181004   26.02228456490731    8.70764524010662
P        11.84053388711259   26.83755514911676   10.82736950424368
In       13.41656655753759    4.57714415915249    3.88463614746937
In       12.04472720671079    2.54930407498957    1.18498525733256
P        12.78174094252353    4.86914343717279    1.52508061512664
In       13.19904850162489    6.34881532976879    9.27385112546582
In       11.45901964856965    4.10978601566486    7.17415547613831
P        12.17685399364635    6.47307154287044    7.01886812360306
In       11.80474115771719    7.11233734331154    1.93706482289036
In       13.14576805174570    9.26218012670644    4.19241842229491
In       12.89362649343907   13.78089840407568    4.38646835228845
In       11.61014230489440   11.51667461733349    2.19261746546140
P        12.83675718854882    9.38008796221964    1.73792344601107
P        12.29909284778762   13.90717415127456    1.98976955170815
P        13.95823183264926   11.56112407264060    4.70194794594899
P        13.92550046783809    6.91593227559298    4.51521228794110
In       11.43037101564443    8.80030426546647    7.49396400742536
In       13.31016543308911   10.96505275170946    9.58473386426618
In       13.35134199882355   15.56099325053184    9.86708235621720
In       11.43896356310067   13.39263896403713    7.78636302322085
P        12.33142962096559   11.11780732693872    7.31192621413075
P        12.37469251198130   15.69335470149707    7.58726272249804
P        14.21434198284200   13.23702420550630   10.05044322314006
P        14.10204815643077    8.61661907047621    9.64765409677226
In       11.40929979672168   16.20213261945405    2.41200871717980
In       12.91651309887596   18.27421505155806    4.56194824050509
In       12.88604709079332   22.88287791010082    4.95401579332337
In       11.36671870103372   20.70785633438728    2.73618884036708
P        12.38360657870181   18.49739704143672    2.15146685204471
P        12.20630124948270   23.04160077212590    2.58600898925151
P        13.72167737260394   20.54956879692282    5.15378878230949
P        13.89955250008440   16.00225426558108    4.80224603002938
In       11.43450923797873   17.94263310370755    8.06861370115030
In       13.33528673654861   20.10008169554026   10.17916421612024
In       13.65880071858170   24.22751343711840   10.25041600006073
In       11.42879601782971   22.48078170400192    8.38107589989552
P        12.36167342612295   20.23641370041724    7.89831533918282
P        12.40943998710519   24.74813840577932    8.15469177963799
P        14.85508927227280   22.05388688987532   10.24583577322316
P        14.31504508596980   17.81655487527817   10.26960899815761
In       11.37074161945155   25.28919607469374    3.15622184551817
P        13.91245341275398   25.03083124718295    5.59114344005406
In       12.76756092757523   27.17356564545302    8.58022637902224
P        14.65260150462749   27.87416253424963    7.20340963771663
P        15.49010182760845   25.84058090881483   10.04442256729303
In       15.28215962052971    7.26921738430072    2.47654808178748
In       17.96346941924156   10.29687803415788    3.72843025826947
In       17.02162315033741   14.65751057744018    4.50261249611000
In       15.01668250230969   11.98207584439959    2.49335904533900
P        15.88864082136798    9.66298397102605    2.57593235010888
P        16.20069798289308   14.14377000505496    2.23138026131299
P        17.78602401525564   12.37029865519600    4.97488989216071
In       14.93645472703200    8.77499068213880    7.33969988200129
In       17.15240825101687   11.00924900908106    9.20556032940917
In       16.80789886170565   15.62434981868478    9.59820608637737
In       14.81875829534781   13.38967474936136    7.66338568600223
P        15.72030294260407   11.11927607564059    7.20702207602070
P        15.64237454903964   15.72612823139271    7.41001966291737
P        17.58205364789069   13.30981823903055    9.84424249508082
In       14.75778169785313   16.14209225986861    2.47738610286982
In       17.80921418358308   18.29701915128733    3.02430667511277
In       14.79322762646085   20.86254202749245    2.92937187207198
P        15.44207938919391   18.52314572441789    2.39491313638936
P        16.07938121604663   22.79324442619068    3.75471563025108
P        17.01843238251806   17.08323878260510    4.98337764154301
In       14.84699092134523   18.03916425819884    7.86675182601271
In       18.08365702883550   19.51227567758333    8.15262321939573
In       15.30419991892073   22.06607845320457    7.82706254183531
P        16.07816962956386   19.93204852181238    6.79698022822160
P        16.85569581625770   23.76840048915043    6.96418543831036
P        17.61535777465624   17.92312601979594    9.92318993553106
In       15.27457233783174   25.08371246883634    3.56750244878797
In       17.43338611460245   24.71481868546896    9.12024798192987
