16
 energy: -0.806235140890 gnorm: 0.000485170210 xtb: 6.4.1 (afa7bdf)
In        0.39425645937213    3.43814266622950    5.62153885791273
P         0.79705374430074    3.84757293120362    7.95377291087610
P         1.46067027300665    4.57682577019059    3.77143279643050
P         4.30092231164589    4.01066283091325    6.47050917281785
In        3.67343310785403    3.66560867796237   10.33211153486676
In       -0.06710462308320    2.59320342599943   11.32896060705777
P         1.40175478465103    4.50901242892097   10.85998152278599
P         5.38293600575328    3.38710808565055   11.98918188868211
In        3.09682230581361    5.72918713902552    5.22009696539090
In       -0.69307942388650    7.40375113574835    5.86124226460498
P         1.54899280933087    7.04808552284238    6.61168332271914
P         4.47655251041498    7.33399820954355    3.99086125862357
In        0.19876247655249    6.59673341595016   10.38337306002999
In        4.08767165470628    7.41588115732600    9.84021719013162
In        2.10106313949506    5.12956617427907   13.17498997176996
P         3.57967246406356    6.70888042821525   12.07068667531166
