48
 energy: -2.943976915850 gnorm: 0.000644125801 xtb: 6.4.1 (afa7bdf)
In        4.47259188442025    6.63172172121772    6.08128872155075
In        3.64777855091276    3.32670143655904   10.12719262568212
In        3.15261682178938    6.94720488778626    9.99617310837473
In       -0.19131700721225    5.14309366854331    9.26201658588499
P         1.37083170771682    6.73018851789632    8.27610362576107
P         2.59064508247824    5.03241552696935   11.47355389112301
In        3.39039215138588    7.02344306600437   14.33193161618850
In        0.36161501613627    5.05647941772322   14.54855203892876
P         1.36219029218157    2.97584097653456   13.86642288537462
P         1.19582426785671    6.92174499062586   13.14729271042097
P         4.22220216760001    4.95210993605173   15.28001561279247
P         2.17916470079097    6.60066412098812   18.45603034984461
In        4.53076286787219   10.42574210495675    5.97601209704681
In        5.04179129981535   14.45110759840119    5.86390644790311
P         3.67858708725224   12.60285293122232    6.71405580087629
P         3.23840256218612    8.55442015151695    6.91666465987743
In        0.23524090083105    8.88299157824508    8.76862632547850
In        3.12968471595418   10.70733468739834    9.97460511584140
In        3.26071218296018   14.56185829430804   10.02083638586543
In        0.32544339381031   12.61652597766480    8.77651232912095
P         1.69596062060864   10.71158082988428    7.93805658886759
P         1.75997966493834   14.49661689231034    8.03588149351367
P         2.36702720847912   12.64806691377755   11.32257910480214
P         2.28077790371946    8.83062358936751   11.35907275859831
In        0.05486643670010    8.80152600743063   14.32313204353287
In        3.13735681753308   10.63709314788407   14.49047895786910
In        3.36994328210627   14.22938980515971   14.27290220176280
In       -0.02161948638888   12.47394105362867   14.45040567633847
P         1.07469721548832   10.70703722319752   13.08200985844321
P         1.07518146340200   14.39576433217047   13.31673892920950
P         2.83180147988250   12.57538440901740   16.03070964793649
P         2.84139743518475    8.71636921672939   16.03924062289886
In        1.67209509387634    8.73544073071791   19.44512528241699
In        1.69975822301322   12.68054069301505   19.33279999634570
P         2.16322213469417   10.66401764502704   18.01109136875008
P         2.24578188198182   14.68401560734129   18.03465923015480
P         3.87990878795890   16.33835018886771    6.81722428438762
In        0.33439114081803   16.35097222460479    8.84366691716291
In        3.50580998348574   18.11309379653852   10.33443087704998
P         1.82180860370772   18.26007418145210    8.56668852072975
P         3.37389269923808   20.12583230184281   11.68879482888931
P         2.45184277823074   16.28498543194830   11.62396432162217
In        0.13822817986111   16.12607916583846   14.83173019978230
In        3.21565392405562   18.30633428502700   15.20973931694525
In       -0.44359820888899   19.16069836278472   12.44286433727646
P         1.27498181331267   18.02434882584883   13.73492630611396
P         4.41699419651264   16.20991392490783   15.25928716673620
In        1.80783807968957   16.55674762315205   19.48192622792680
