48
 energy: -3.264764851918 gnorm: 0.002637638763 xtb: 6.4.1 (afa7bdf)
In       13.07161450363647   12.64579230981827    0.62775248808627
In        9.60823262079056   11.16210435295589    0.67486757838644
In       12.18401234925709   16.41742491342736   -0.31138162562477
P        11.48157862869587   14.50998740520001    1.01513072571636
P        15.21528525536576   13.53602701361108    1.52560051461455
P        11.73553798030911   10.94105665690636    1.81557106762917
In       10.89594166721414   13.92475347932026    3.32565917777417
In       14.88876122702750   17.74265959050319    4.82285112566052
In       14.21616909337668   15.56225449076106    2.59006840082195
In       11.44011927855774   18.21660332500758    3.22597501474395
P        12.14141127250931   15.96528828269946    3.88928688723117
P        13.73024069341669   19.08354313165797    3.08029604994605
P        16.96628056609189   17.53573437098362    3.44899596275699
P        15.12259777283874   15.25444205605320    4.90365010028116
In       14.35222973062207   21.16861507747099    4.24392944500168
In       18.48515758004822   22.24922863834618   -0.17800676794062
In       16.91882817302061   19.71774759299689    2.23838555236624
In       17.17491180123977   23.25586166333994    4.12797849409993
P        16.79294022858949   20.82977180935434    4.46192525180935
P        17.05286133595813   23.04824381428462    1.67851249631683
P        19.72361381621232   24.32121706811714   -0.72576062207887
P        19.04269178372998   20.11983409385373    0.96908653412748
In       14.83370697536082   22.68579194916340    0.74998941099505
In       18.82274625525883   26.03244705950794    0.73448386987779
P        14.35404698980385    9.43935119263610   -0.80963635655859
P        16.44869906572058    6.95938442694418    1.07781101351604
In       13.44012491047930    9.18898770113954    1.42059110525383
In       18.27474042682861   12.29127587701453    1.94648900154086
In       16.72577836151125    9.10824373713143    2.17549779742649
In       15.28301157730930   12.11601374628384    3.56495732275052
P        14.71371531858621    9.70235862020970    3.47913177653424
P        17.64396614536020   12.11273994905656    4.34234909640545
P        17.68567645586914   14.63978694220365    2.44583521896118
P        16.61166944487764   11.02482202323998    0.63508626418052
In       17.28116903954888   14.23336749506531    5.59351018358859
In       21.34956983117574   18.62043320621527    3.64099532658067
In       19.85971902508203   15.39725291445144    3.34855579907868
In       18.43359782170259   17.91960413890640    5.40057635335490
P        19.32639498144805   15.63570401827344    5.74806334630632
P        19.74666674369001   19.98322323971873    4.96297966309732
P        22.30201745364388   19.97384316921321    1.80868971753045
P        19.63479325862475   17.56993192509616    2.18573516224769
In       19.65165869700376   21.45502566407135    2.97007233561794
In       23.07905625291959   21.94436074545939    3.06904807389154
In       21.78781627309428   23.51809904224553    0.38139020964175
P        21.12253448210831   23.43905809364648    2.75270280835968
P        23.06167471499320   21.72774360200225   -0.64473444640909
P        24.99712302907387   23.16587777522646    2.20417609452106
