58
 energy: -3.794990665636 gnorm: 0.001708443666 xtb: 6.4.1 (afa7bdf)
P        10.56533442986040    6.78726696396994    3.44077392558395
In        8.05102820706571    5.40042908033153    6.65736595076876
P         7.94501860474377    7.42416094636344    5.26235603576615
P         8.12726634585696    6.12238876262694    8.98896512941833
P         7.94119771603718    7.17862343096325   12.32490103232005
In        6.72600330758945    8.10951573486344    1.94178924547210
In       11.18129534627537   12.31844258348277    1.20194844098308
In       10.27009472259214    9.11059565921106    2.78592092189575
In        7.78169352786753   11.60283854589136    1.72261329730993
P         7.92110430168612    9.73042501210766    3.34623226273469
P         9.12196573644500   13.67049236585051    1.51055538400305
P        12.36059618332038   12.84639778449046    3.27604477795934
P        10.56174149992049   10.03975831394191    0.53996349333501
In        5.97153687570308    8.06055166568841    6.58830957993086
In       11.30574485607194   10.34066797326570    5.88482905793615
In        9.53007592617556    7.95673191178561    8.11385056523716
In        7.54728486664708   11.05648962336129    6.78415992963098
P         7.35506512124827    9.13667970675777    8.31741301052586
P         9.32099182629392   11.67664494134711    5.19102578324111
P        13.48629615356767   10.97845875001796    6.81167190281330
P        10.55902180955142   10.21021810905319    8.22790346797271
In        5.38464935832887    9.66508954944717   13.73686109787263
In       10.66924726679168   11.90930216563310   11.51164279491710
In        8.90851550634972    9.23776117439560   13.19581504874903
In        7.20927854677678   11.81809603816625   11.11932071714631
P         7.32518100930487   11.13033146658536   13.49276534040571
P         9.05183167777653   13.03822991085502   10.00259020969248
P         9.46325836498551   13.08818413078923   13.30817713947935
P         9.69782098720741    9.72397406758559   10.91088074879332
In        7.80084971326695   14.86225202347824    3.22576302586474
In       12.66792327931513   17.60975384003328    2.27338252407029
In       11.18806933963595   14.94416526337396    3.76350141223299
In        9.27531920914587   18.43922023381119    3.64926547121904
P         9.25451128184765   16.20292744226115    4.70176781245574
P        11.58923482996801   19.29318579501312    3.78310277680677
P        14.45119175583205   16.19121728472601    3.12372524724727
P        10.95883915350633   15.98125829349652    1.56528309300854
In       10.31191036014810   13.38127502576957    6.69802141670556
In       13.02304082124519   16.29292420871124    6.73100859348521
In       13.46230149812473   13.09590124660443    8.05466381799297
In       10.26374541991348   16.54875806675632    8.39563197358331
P        11.39107253359016   14.34787863547152    8.71287742042088
P        11.03483627956960   17.80111281211836    6.38288142494887
P        14.36708580906712   16.53483512921238    8.79954591707813
P        13.94394846047008   14.17235335736362    5.90291683839005
In        8.21961375230905   15.14364529113138   10.99882607016227
In       13.97782172750471   16.76150436825273   12.72739147603171
In       11.09859729531452   14.93029811113771   12.93573043153931
In       10.66747380093089   18.52830874079251   11.86910223481041
P         9.31939518498901   16.63144421778838   12.62099276420101
P        12.96525731776665   19.00884425138945   12.55425561923795
P        16.13639717656317   16.72699179058878   11.61429782214373
P        12.59800530765690   15.57469034141340   11.05388939080097
In       11.92054565352730   20.99167254466000    2.05685999766773
In       12.40577001604940   19.52130912937485    7.54510555453375
In       16.06914017764145   17.46601087975581    7.30528597695114
P        14.58322967876525   19.21588673032127    6.50204445162656
In       14.46175457427971   20.18368828645641   11.05709315432141
