96
 energy: -7.105643389640 gnorm: 0.000768063794 xtb: 6.4.1 (afa7bdf)
P        16.10371121645677   14.22030462615831    3.03572363097885
In       18.28016556124014   18.41024929335688   -0.88209371131776
In       16.51644308759701   16.59649811417524    2.77563033558275
P        20.09798828363006   19.56812140848275    0.30286466944620
P        17.38544276774503   16.57571374137843    0.48226366097790
In       21.19655803496855   21.60364430834434    3.06487201459476
In       22.54213140675042   19.63198684770546    0.09679829568015
P        23.21791364389705   22.42129960638992    4.15735799372450
P        22.79822374138122   19.78593291668708    2.55573439888790
P        20.30505051512116    7.37908333705248    1.92239813699513
In       21.51353665176305   13.07415771880378    2.97258247369993
In       20.23344903805972    9.83826750144629    2.07318032502425
In       17.91744736693028   12.58669582331534    3.27282278426396
P        18.48149616107599   11.35401621306661    1.23814430829261
P        19.50903225531812   14.49448966713412    3.42742612545459
P        21.61110160330686   12.35596177536616    0.60081490797250
P        21.56657082544969   10.79274286864291    3.94594954969709
In       19.03858322375651   14.78724426048912    0.99507078365814
In       22.98528186324489   16.13023166615986    2.33179267771062
In       22.39774268867099   14.44958716690647   -0.48691754110286
In       20.07713194891916   17.75304451298586    2.01087664550313
P        20.83217996435182   16.28518870464227    0.12764958020244
P        21.22430732754261   16.75335821012825    3.99401140507454
P        24.78586821292008   17.82896542012108    2.23061791088425
P        24.14152151583843   14.18306569911612    1.27667408673021
In       22.52812248580553   18.73335163846376    4.77670632698404
In       28.55818008096642   19.66788015709045    4.39791748071127
In       25.61674617876169   17.37403218631115    4.53571694831615
In       25.31221496365646   21.14110789713569    4.33328067688613
P        24.70811489948963   19.27576094484460    5.83836916146300
P        26.75811523817078   19.95568345433973    2.70405231190668
P        30.68942717545869   20.45132593945013    5.32874413004919
P        28.07925535047628   17.24355447616173    4.25226792314502
In       24.18923798053164    5.71922675324808    3.72288947871304
In       22.87179879783528    3.06660279287861    1.47958980503160
In       20.69159746135010    5.71044957771062    3.67918585078546
P        21.56676734287630    3.42794212109423    3.49734631278671
P        22.40773972755138    6.58313615214331    5.22727864197413
P        25.83374331536558    7.58732628547044    3.52361877554106
P        23.29854374097862    5.50834976728079    1.40457987565313
In       22.77622272220398    8.61940053158023    3.85148721357996
In       27.19061307008133   11.07644668366248    2.99964176070424
In       25.76544578437436    8.33866407637087    1.16797862748399
In       23.44367974795888   10.81159101937685    1.32308246693115
P        23.28461789981153    8.30390073899527    1.42863442952605
P        24.73448781246307   11.12015431409796    3.42570048507385
P        29.62575406180132   11.56950749732766    3.21847482036540
P        27.55182411775282   10.02676168623705    0.79206559480605
In       24.89533221672070   13.60701666312140    3.57476364446981
In       29.15010109070877   16.88233890211443   -1.04145602522087
In       29.15223465388159   13.75476963027025    2.08226507805532
In       26.58682723507399   16.23652392121144    1.51109233807389
P        27.16479178010785   14.61417513801474    3.32521041485077
P        28.04307177728225   18.16760017955147    0.78459708058735
P        30.97427398724917   18.47304775821635   -0.44226155223861
P        29.34326845245474   14.54279003820984   -0.26248037242649
In       29.63050145179374   17.02866704475037    2.33039173130956
In       34.30164549430938   20.23280928451448    4.06387329607320
In       30.92453302118078   19.99228950443842    1.52975622524434
In       31.73163291195153   18.24544117477353    5.51942845766502
P        31.71074750967464   18.18498717965462    3.03759695146815
P        34.17830836034010   18.14173544414924    5.30336627865470
P        33.01543208041119   21.16585990891800    2.19291438735318
In       25.65489177209399    5.03467454189661    0.71891619482870
In       31.18793305202639    6.52387564440452    4.69179855596361
In       30.19163414798043    5.27743227512534    0.87337674119148
In       27.70422782212442    6.03210721722292    4.02911199792687
P        27.89882808563626    5.14502079988277    1.73557228011248
P        29.19767992381176    7.99164224319003    4.39288340664898
P        32.99927819971583    7.91688389219942    5.66547475053561
P        32.01360540860042    5.90389764882536    2.43574635780750
In       29.04695675605747    8.39733231464358    1.94874942546262
In       32.45484387993702   14.31282810452101    2.92411285917869
In       32.05416523541549    9.57992512130600    4.08174522339307
In       30.93856529086386   10.97883206378406    1.18856053090212
P        31.53474183844313    8.62879589399234    1.83603894124510
P        32.09997570389693   13.14150968096471    0.76604688054100
P        34.66844361297883   15.49683583242465    2.86797370527186
P        32.70635747986432   11.96095624682775    3.71578468932188
In       31.44520950463779   13.99856826717596   -1.47625253167890
In       36.43523779753820   17.45295487083020    0.26719614234142
In       35.15259309930659   14.34648506276576    0.71031445766786
In       32.42558009382213   16.63351182901712    0.37106305308552
P        33.65669983784593   15.10172085335992   -1.14156366045216
P        34.29529422351133   17.87935516777743    1.43205636157356
P        37.46784265889825   15.24575768989848    0.60395030377245
In       33.97642677517805   20.02561116988526    0.22810817184908
In       32.69296017287658    3.62517082613069    3.12358529136610
In       34.69204106147900    7.24755243544493    3.99574223482964
P        34.49232102279817    4.81474835971972    4.24072126223220
P        34.55542372738766    8.61408506005949    1.95694201243605
In       34.26634088261016   11.06507630883224    1.98438135876577
In       35.45165034391606   13.64384630132754    4.35434271910249
P        36.38806607286733   11.98706226691146    2.81440498729782
P        37.24332353899656   15.17038447278474    5.08556070800263
In       38.28201187112393   15.38690883867289    2.90708210645624
