24
 energy: -1.339655966898 gnorm: 0.000615230441 xtb: 6.4.1 (afa7bdf)
In        7.12727927222727    0.45248454915196    2.41111190040514
In       10.81606580128226    3.15750622646394    1.98382114762205
In       10.81037169878007   -0.02211161295345    5.15538449821895
In        8.97024316866772    3.35154313880555    5.35630635166034
P         9.97498411890507    1.63029882555901    6.72948485137976
P         9.97842941824172    4.72832082577092    3.63983709444652
P        12.19468889126672    4.58481789163195    6.59508676923286
P        11.77366763908254    1.23196173404338    3.23397095224595
In       11.89370173978797   -0.50092007881179    1.49858355951605
In       14.20437948046103    2.63784596701063    1.46462571656719
In       14.20359926158600   -0.54196390602212    4.64062670354602
In       12.71597568414021    2.88473196840902    4.89058231133965
P        13.72508245520062    1.13548361752596    6.34842934848575
P        13.72602142010149    4.34444305114200    3.14404190343792
P        15.95291741933297    4.31509747916645    6.31967270780763
P        15.22096467177799    0.88355725577880    2.88835321459216
In       17.45230027384957    0.17492402705574    2.18223273751486
In       19.34636782369195    3.76605762279470    2.70869969587476
In       19.34549710708752    0.71471348448133    5.77514714798964
In       16.05057914815994    2.57632941606060    4.58036828721771
P        16.94457187689508    0.82685524757157    6.07944848103498
P        16.94544823925306    4.07417827046982    2.82965524292866
P        19.73484718560155    5.00700316165311    6.95622604362674
P        20.42562620464461    2.19741183725343    4.19878333328977
