134
 energy: -9.168034423202 gnorm: 0.000768967525 xtb: 6.4.1 (afa7bdf)
P         6.50540588096909    6.22364144490595    8.20448219867909
In        3.33685278823060    9.04378985310277    3.54234911144724
In        5.31879013123683    7.16484788579141    6.24571004624849
P         3.04403385068047    7.19673379760242    7.10263460417652
P         5.15004506351670   10.39948755553767    7.51101891599841
P         5.63986302966475    8.43719380619144    4.11050749663442
In        3.20116755911288    9.37479352714383   10.49012401673453
P         2.22891420222653   11.40229173939477   11.38852345909546
P         5.01481921924647   11.19260203171426   13.50369901195557
P         5.41968141406921    8.33645027470304   10.26199285545084
In        3.22519706615248   11.61347083340032    6.59558949945452
P         2.07339557056389   13.11048933257792    8.11768211223033
P         5.12550391117631   15.34174767044473    7.86397971702527
P         4.46589768783590   12.88597016643362    4.87284150793669
In        2.17466200331848   15.97214073878859   10.75338595543828
In        3.31056724955770   12.88400268271494   13.01773941297334
P         4.85751090162028   17.03958226029016   14.26118840914695
P         4.01122374611484   14.42893610161674   11.18121794215943
In        9.23883190537995    3.74230693746332    3.74461636951391
In        6.96799081111675    4.21720461708847    6.82866756961014
P         8.76366126455499    2.65776978941528    7.34737239196305
P         7.39840519965740    5.14339107111542    4.54793872060764
P         9.82502305145360    5.85484975676826    7.39337472089080
In        8.85568139006606    3.17177746062048   11.19554075386707
P         7.77165272800584    5.34966454963458   10.84486759205252
P        11.39221498454145    5.42335068802699   13.00243417426921
P        10.84940926938065    3.32218564126108    9.79851196349819
In        6.40183754180486    6.51993989606630    2.75020110936813
In        8.61726497528704    9.75560711947090    2.54566049974145
In        8.52739841052254    7.06833192844364    5.69625223728653
In        6.46102357793004   10.42677829742777    5.40219047367988
P         8.32679694966051    9.35541083704639    6.60444357499798
P         7.68969147999783   11.77274918228586    3.64116633487243
P        11.01917073987472   11.16037905439571    6.32095368432709
P         9.77780640406155    7.91561852727887    3.69978806562063
In        5.68845572238583    6.34748195446960   11.70951610811115
In        8.97918122080554    9.32852815709735    9.73308303597986
In        9.56282464340449    6.70565893382103   11.93737048212890
In        6.42653998218088    9.72810063532144   12.10557058553967
P         8.26573678585430    8.43565276770532   13.12625889538358
P         7.26864757210867   11.08686748802816   10.14590068453441
P        10.55002219714431   10.68577581635827   12.93937322753452
P        10.83786539469482    7.71594076288657   10.01186039704238
In        5.61052188485921   12.73137190904752    2.70688048884668
In        8.75776132852804   14.85167887370398    2.81891812631702
In        9.30218604557338   12.63604485612658    5.33275665799555
In        6.18017456625786   13.53351840675379    6.57471829564095
P         8.13154643744550   12.25415212855949    7.51374202510940
P         7.29722089136873   14.95393916894341    4.82287383377274
P        10.91488000907991   14.31770478677960    7.52741424109379
P        10.82900974310566   13.82867349737225    3.70795858111410
In        5.28518032362294   12.55387178899981   10.22813247455738
In        8.06452337008470   14.81898532137453    9.92956382226172
In        8.75012177792941   12.05120873232724   11.96189914436986
In        5.76936864881006   15.41836763857243   12.67859917781796
P         7.24853148680535   13.53069842300240   13.24182279245208
P         6.84672587657381   16.75256740031425   10.83349917225753
P         9.72003350643834   15.57588524249785   13.06931843651238
P         9.88427281931479   13.14463105840430    9.98903367804494
In        5.65169551917622   16.72660084367167    4.43540886653392
In        9.08466927156584   15.65731482044988    6.45521011985227
P         8.12052531990985   17.65058035577481    7.51285040087505
P        10.34429440478004   17.12939462591460    4.87802574911036
In        5.23081358684004   18.44595496645873   10.15556264340680
In        8.71026854734365   20.43664897513695   10.03827237013680
In        8.43786202137059   17.59924033550646   12.56259455148878
P        10.12164615711992   19.06330927035027   11.45807341315070
In       12.01789835892572    5.40197945515920    6.36206691821355
P        13.28176768750870    3.59457617877084    7.41029109831092
P        13.20197983898287    6.42873176829039    4.43444599257195
P        15.99204097842518    6.23235279713047    7.36603702527584
In       16.26903551368097    3.18867160430834   10.12275068183132
In       12.38884763499668    3.59872975670579   11.70591498052218
P        14.44519336144226    4.66919943417238   10.76372824577697
P        14.25772773910944    4.15015931917035   14.53425106176584
In       11.62047752519132    6.71221873348981    2.57858458372733
In       14.86509279982022    9.04068200523178    2.41624890252555
In       14.65322922162432    7.74036077815476    5.97831552584005
In       11.33417044475512    8.86195969051467    5.44178845774519
P        12.74522506710073    8.43290112235341    7.43882749997446
P        12.91401761941763    9.78122372145401    3.73657084209426
P        15.61915321852049   10.32180508470281    7.67116157052163
P        16.34618386400416    8.76867342930302    4.38383162923513
In       12.77818607924049    6.20652991535376    9.80269055570423
In       15.39764029305412    8.22372069832875   10.33717900749671
In       14.99317967923158    5.83718479899273   12.91194476458974
In       12.01370855485241    9.08143243716183   11.77905234533620
P        13.53418671929754    7.80009012902913   13.23617111182565
P        13.60500969567796    9.92145032488839    9.98295284004286
P        15.89382864738845   10.06502896744591   13.64430549009860
P        16.95319435686772    6.95227742733568   11.78224205605822
In       11.94129957719433   11.83808872635152    2.76634008002063
In       14.88473373045425   14.29255074094737    3.27640538853224
In       14.21616527374743   10.79693945687555    5.65565873291371
In       12.29140810271198   14.75293942076032    5.49035165779233
P        13.55144345114069   12.95890037399665    6.64812222532411
P        13.63727691521775   16.29888678287206    4.04508611085941
P        17.12852958297421   15.51462739831492    5.37662128990343
P        15.69468815874989   12.09563257481554    4.11949220199938
In       11.77542314440600   11.57046670457242    9.54780484254428
In       14.55194440117178   13.83914809035043    9.70167682955629
In       14.58192654761364   11.22944016833900   11.92386393270556
In       11.31359012411603   14.19413794063466   11.79937931996550
P        12.97835864643512   12.79158101957343   12.94434878066484
P        12.58110593480392   15.36345339386587    9.94924231429434
P        15.36907312096420   14.95353907507118   13.04270730279406
P        16.25112874216553   12.07704197776452   10.21664031318838
In       11.69598283256303   17.23004322583510    2.83019972967742
In       15.33274880915688   17.16778167419388    5.64127141947870
In       12.01655643156816   17.66812406083798    6.62789169293949
P        13.96593565293363   16.48611987720188    7.58072976095445
In       10.86538357949438   17.17017006021734   10.06619783113920
In       13.92743219668203   19.81032080959348    9.82842860401854
In       13.84224352904861   16.46836811781228   11.84951796717115
P        12.34303806690007   17.67153334836196   13.35829303254323
P        15.30018088168107   17.91365931122654   10.43974529080011
In       17.60381235009318    6.67441767166251    4.07903920383123
In       17.54070418209829   10.17840674143607    6.08202695088937
P        19.15282349139879    8.76790660397050    7.27226131928484
P        19.03425396494029   11.70691176079303    4.77669836954404
In       18.81018369816830    6.26262753708610   10.36716200780100
In       21.60302746457831    9.02555311776563   11.26407616239204
In       17.70154272861625    8.42786967140771   13.63016046618885
P        19.53704276535077    9.54952268262817   12.41317294571345
In       17.69651611633563   11.72688413685296    2.71918136000673
In       20.02552334003461   13.18629766442945    6.46799743343156
In       16.62955966280804   13.24637395222461    6.16163057681483
P        18.19233522691086   12.77569376072306    8.03879084936267
In       17.98947661930359   10.36178721936837   10.69137098442844
In       20.72588658183337   13.59329317403725   10.87814199703358
In       17.11322106261087   13.46711064828155   12.15307348760738
P        18.39706284447720   12.52978318541858   14.00890677282279
P        18.66802432598207   14.86548274214065   10.79751509019133
In       17.18834472035451   16.51521932405187    9.77107519583273
