200
 energy: -14.338510035511 gnorm: 0.000642762541 xtb: 6.4.1 (afa7bdf)
In        5.92664255306520    6.90814554190604   10.38025836197344
P         5.18888651410419    6.97006388259883    8.06498691475195
P         6.95125021632755    4.74645556638654   11.00287593313106
In        6.65646412662064    4.84523962736697   16.37876390932274
P         5.50380762147396    4.84069733446051   14.20769734304093
P         7.80917961539492    2.74553963398737   16.95367420347468
In        6.11334597109095    9.35058621742945    5.04156379545248
In        5.75918542643483   13.67691239795570    4.83622616461252
P         7.07322728992132   11.61606170007361    5.14357081834790
P         7.31947990137435    7.23135804011005    5.02149840604094
In        5.82973048701894   11.35477989673782   10.51603199023902
In        5.93043082492291   16.02291983046789   10.77878974228738
In        3.84897411701745   13.60697624153526    8.33020202918605
P         4.95399087292614   11.43939958056894    8.22578429944272
P         4.75291504426750   15.83791186859296    8.64421241187771
P         6.68782885504899   13.65464051609303   10.98809460025338
P         6.87123368407732    9.13647230576539   11.01659564765245
In        4.38489940136804    6.99476015708099   13.99602724765317
In        6.49118194197628    9.26114764246290   16.28690996804444
In        6.25437351592298   13.84466021856003   16.21395756467696
In        4.22215892475382   11.33526552478143   14.01749845618358
P         5.47491732873303    9.20717290314725   14.01880060780985
P         5.18289445858068   13.57641732600185   14.02025427804771
P         7.30513704227745   11.61017664891845   16.60541693100189
P         7.71057964237011    7.09996357521645   16.65387561535914
P         6.26774019590503   16.00185039204770    5.15855295932520
In        5.61596142615081   20.28341778880605   10.54714866544271
P         6.69815883968142   22.39381370111625   10.03921929435676
P         7.00803850388959   18.27256611217671   10.88914995760843
In        5.68242625057876   17.94829579031715   16.75227252347776
P         7.26463601858013   16.10187174999220   16.59637401002753
In       10.14625740559519    5.11346626468766    4.90842891259384
P        10.09472300139015    5.43018713252301    2.47418265612455
P        11.23697046631635    2.93239242274278    5.15413495181497
In        9.73168163983267    2.31515532613027   10.43238940774826
In        9.41240294757136    6.87418514699245   10.57460119375996
In        7.81966880038869    4.58969033278467    8.70538038405689
P         8.98429605174357    2.50704034648413    8.09814950065264
P         8.65404525531170    6.88713138225536    8.21348391769866
P        10.46082035134711    4.64441889221153   10.93035194720720
P         7.85604362353022    0.97218955263287   11.22349611551416
In       10.66185945316192    0.21075236615562   16.15881568448254
In       10.18455029390918    4.84799762166436   16.03872486671366
In        8.33849492912225    2.46723050335545   14.57448516137145
P         9.49130864538144    0.36752451461936   14.02436337195019
P         9.03052140706575    4.74141230806571   13.84878210388106
P        11.16642192438872    2.60583854553329   16.45237633238897
In        8.94110467514899    7.61201685226461   21.92567082432781
In        5.95332204944325    6.22870801289759   19.95346752547198
P         8.08728216279623    7.38796236749480   19.60026840869747
In        8.57437019147868    7.31134568664761    2.90460056022120
In        9.71493296639300    9.54856814347852    5.10383685786025
In        9.42070129086836   14.16981971972292    5.10592578278018
In        8.23956759862784   11.76370296694804    2.94881300344618
P         9.45189437855997    9.61902932786403    2.64083700566736
P         8.79005908063882   14.15090954185457    2.74214849123931
P        10.45626454711052   11.91982400540527    5.31336989650875
P        11.02899248996994    7.43033259860276    5.25816249608399
In        7.68694365776063    9.13556848703012    8.66764743308036
In        9.15670679516522   11.46195449940778   10.52863822304811
In        9.28194538080470   16.00803176988456   10.45624274914837
In        7.43766509396696   13.71455902143045    8.63098706738679
P         8.40217114146016   11.46805515815508    8.16140953573968
P         8.42978213118685   15.93490253106967    8.13405751825104
P        10.12127768586986   13.72004994709838   10.91567935703025
P        10.15342262088713    9.22411965983626   10.97206927588869
In        7.94718141166076    6.95886657194827   14.17802167472732
In        9.86279513345150    9.28895772720204   15.96808134220913
In        9.57129686928267   13.96423678479485   15.97241183741920
In        7.80494383407451   11.55867334427889   14.17909441909318
P         8.74302132667068    9.28357270041555   13.75584775472154
P         8.53412617333939   13.89971435194008   13.72669510279616
P        10.46789654385927   11.67445122746331   16.34881086993077
P        11.08527571460312    7.14324571958949   16.39088417127070
In        7.57329769071381    9.81325042072966   19.74083122308352
In       10.26028777241119   11.63778058640499   21.63576392912382
In       10.80954490140474   15.88148399093534   21.60281372667530
In        8.06399850923383   14.05126508789036   19.76248553881898
P         9.02793786983552   11.79423956819272   19.47780335578403
P         9.46264688527369   16.06652637296695   19.51606883054020
P        11.80671343962315   13.59730441335304   21.80362082245545
P        10.80939096277627    9.22740702451244   21.90973532972883
In        9.35691821437148   18.23221111244295    4.74964276317090
P        10.76382612473965   16.25874944198146    5.01655659935714
In        7.59745504656941   18.24063851407223    8.47804762695266
In        9.55630358145319   20.44307273311117   10.28642862006487
In       10.11816092099968   24.11807252006605   11.75222016903450
In        7.94179872868700   22.63224773587614    7.97059622458207
P         8.81582850599785   20.33467670679067    7.92733246458743
P        11.02725078645632   22.43640394749110   10.25674969213587
P        10.46111406268612   18.17666458950036   10.70797424275973
In        7.73276412987685   16.22130005689803   14.16287660666338
In        9.72994570794952   18.51715837977079   15.94279484481886
In        7.44755560628640   20.60422769646931   14.01495453365830
P         8.64527805974586   18.49646161976273   13.71135587541644
P        10.54571526680190   20.82662742955140   16.09596615911171
P        10.55055359909160   16.21341382764349   16.38103335955920
In        8.57982992382473   18.35043004164189   19.79048551866707
P         9.01571474541122   20.61397483160610   19.10442019600858
P        11.95435067870560   18.03512177212238   21.86023426614219
In       14.73154912471382    7.39759863838454    5.24540382608700
P        14.62772914519895    7.45023000159313    2.79531203163889
P        13.42607396828724    5.33428297844934    5.26190854704116
In       13.18911786313833    2.47215703637389   10.50876713837692
In       12.86415581436208    7.05930286460529   10.53175571264476
In       11.35289441866388    4.76675766135921    8.61864978423607
P        12.37958439207059    2.56681532443773    8.21066988207861
P        12.12722426595767    7.09132533039663    8.16750033981961
P        13.87307255927359    4.82258611489942   10.87789074696296
In       12.79473138382079   -1.03992402932684   12.44021768897790
In       14.28395030571363    0.97974993089545   16.36699324884314
In       13.77172727397939    5.25535215505951   15.74106107584290
In       11.85582884027433    2.64400372865720   14.07629880592284
P        13.25295063671170    0.59427390781075   14.17618831479586
P        12.53883573456456    4.98588291139521   13.61223844000811
P        15.15844532389266    3.20774522385144   15.84255850894897
In       13.41815557500834    6.38868885998059   19.61680206344395
In       10.17777949504637    4.43153927426907   20.09401488609344
P        10.96844109465069    6.65988731158407   19.44846471500771
In       12.25693612532486    8.01727696970443    3.18157944367471
In       14.13080103157469   11.26295259409494    5.05425578093502
In       14.54126147704629   15.17705299810148    5.16750828568707
In       11.66011921177809   12.42352300540151    3.20517829987662
P        13.03344194031311   10.37048977212652    3.02328075397375
P        13.35229716058316   14.24835230182963    3.19691797646810
P        13.40147135544642   13.29686334548174    6.30577026929791
P        13.38735871945894    9.22342267451009    6.25430454145936
In       10.93859456928582    9.22858383765081    8.63179092260220
In       12.64315872948191   11.38107594450626   10.29418758317195
In       12.85986258119299   15.61629101016389   10.09369395764451
In       10.83871267309137   13.63011091392456    8.55822165445792
P        11.87631161684583   11.43428155742522    7.91215797779746
P        12.05077445430380   15.66801241862176    7.72161005775602
P        13.75147791427442   13.48538775037055   11.00781558966987
P        13.79810610105343    9.31643709571546   11.03843172732149
In       11.38372918296928    7.15891188359020   13.92731396574126
In       13.17276228536814    9.65786888299121   15.79216281509954
In       12.89195304829799   13.91574403389758   15.74333705660019
In       11.05251203074027   11.68361711205889   13.93743199674836
P        12.13093846368021    9.49148376392263   13.55204283946278
P        11.93263494441780   13.94459857306464   13.46123921891108
P        14.15416184151283   11.86113551840051   16.37120237246215
P        14.49831524081649    7.59483743555508   16.14727035201942
In       10.93249464342620    9.15925738924528   19.44323944446770
In       13.52152629480870   10.92546132562611   20.92593150588901
In       14.13091335309048   15.54224037485956   20.75668984178580
In       11.75167506564852   13.61973385792851   19.31604605079295
P        12.21527744451613   11.21754329770776   18.84064423554524
P        12.61722522792585   15.91158639762977   18.82471451968240
P        14.64333783805793   13.12052119023510   20.60362981572721
P        14.09659392978558    8.53952793695755   20.59404816866553
In       12.06203861744650   16.31635731395735    2.92984367195219
In       15.15430785276562   18.86085140281253    4.85687439573096
P        13.77587100351511   17.34428611911922    6.15840859051287
In       11.19070597349628   17.94318856760849    8.35704837030220
In       13.35838116758659   20.05232739235981    9.79230302869048
In       11.61944550565942   22.07566285705159    7.90251105596925
P        12.55179978588483   19.83143160469920    7.43729417294564
P        14.65604661185786   22.07885616965270   10.12877229870068
P        13.83057484858669   17.80976341745253   10.75609651963285
In       11.10792657218635   16.23490716162154   13.95870349109153
In       13.10518396613451   18.58861525045537   15.63313671690404
In       11.48851017368015   20.89122620368369   13.84050174204861
P        11.98097034933960   18.49053802566498   13.40901406644494
P        13.73270340453911   21.81006867550292   13.86530244444463
P        15.10741576051656   19.58561626383797   16.68494850139778
P        13.78027021262864   16.21860071744647   16.02499022833008
In       12.16195446443307   18.27682872135744   19.43782699238684
P        13.02239169638724   20.49061102223480   18.88159319217548
In       17.92602587760832    6.26050216631360    9.67355261040557
In       14.84099262440175    4.84535631851068    8.60653970488701
P        16.04855336353263    6.97440609760996    8.26232280184912
In       17.86507081802567    6.08573298626158   15.07062820937281
In       15.82526982501141    3.23618518562333   13.48780038414998
P        16.20178887007574    5.66380932490096   13.33808922605075
In       15.12540876073857    9.16144755140456    8.95619717223055
In       18.05530987308449   10.19116614503162   10.08782962472222
In       18.31340632858176   14.09773345553144   10.28581828670484
In       15.22980226533143   13.16467204754540    9.03035226241492
P        16.50412536921154   11.13819270927986    8.39759327283851
P        16.64036418303383   15.19463419245561    8.85463826890315
P        17.39668166753358   12.15041722620485   11.47332991154673
P        17.51464140330673    8.07242894876929   11.24993313783829
In       14.99055384779948    7.81133481517290   13.73600042600923
In       17.93432370576395   10.27663881461456   14.53425237158926
In       17.65067258751502   14.55669778448986   14.58390784452393
In       14.96795819142146   12.00827715385886   14.01696209450143
P        16.03444959048291    9.98101005880692   12.96220059059961
P        15.78950103478503   14.16874095004427   13.01394922093021
P        17.88219567317586   12.40870963426824   15.70500394752874
In       16.36566686831780    8.72846544583488   19.68800051445413
In       16.60782827532737   12.59833300426176   19.17665695111467
P        16.92948456888863   10.43372583690064   18.06329905338673
P        15.57711909921740   14.27160182581474   17.66552779695481
In       15.56226364654583   17.41844597556734    9.01200114557630
P        17.09522903817278   19.26707829060765    9.36160947140429
In       14.52448740245672   16.21730612583500   13.66989380777007
In       16.83581450550747   18.91468137801009   15.12051170225391
P        15.56026616294545   18.38781934623803   13.13176741626484
In       16.84414542038058   16.23227241177831   18.33941365243132
