80
 energy: -5.513836331730 gnorm: 0.000097243323 xtb: 6.4.1 (afa7bdf)
P        10.34938745117461    4.66085779522467    3.64063998777772
In        8.87407203027450    4.09767546972264    8.29331227473482
P         9.78812756220740    5.67543505915985    6.66564923115222
P         9.52125515103241    6.63839274683169   11.15962994854109
In       11.03966661167047    9.71687502865358    2.78625870025781
In        9.07463598427319    6.65438660638205    2.96444863583680
P        12.31371447255194    8.67351702015275    0.98801557407701
P        10.68546957399305    7.87817572547721    4.40606068047303
In       10.99759010832042   10.57529105520929    7.58404959354737
In        8.83713743247609    7.85268912834198    7.43857418939568
P         8.15125751061874    9.31178709286673    5.61919704547340
P         9.65748763967757   12.43403342140136    6.77773819144024
P        12.61696725356519    9.51769512759269    6.04192840027785
P        10.44115357912204    8.70813361574519    9.13922305704195
In       11.03086551215607   10.22449895673959   12.79695042842305
In        9.25781134217960    7.02773837316802   13.54820255553510
P        12.58789334035171    9.47659721502272   11.06135312232156
P        11.29843598593571    8.22601725446034   14.19225626530753
In       14.53807757161321    3.70446102014350    2.17229856392465
In       12.40613516791984    0.58838424077505    1.93474377407783
In       11.27288602826181    4.34554296573604    1.35832449662871
P        12.01273185105190    2.28446116223233    0.25450054337685
P        13.33617797305239    5.76040939829221    1.41247305605506
P        16.14582528411425    4.48060560806216    3.90002946511994
P        14.19592015302912    1.52344025376246    3.33445937529496
In        9.44297929740243    1.55254585074079    5.07666374171122
In       15.12379743150935    4.39646823989464    7.20905990126086
In       12.90608798797828    0.72074225624055    6.38852208914001
In       11.96606284883776    4.43936132274507    6.49121263903973
P        11.72970978825424    2.42278038670237    5.03250336277826
P        13.13723324283260    5.05463856813276    8.62575648211984
P        16.63423070845211    5.29536244118137    9.01069167532910
P        14.94367666233801    1.90922000353951    7.07092239598116
In       14.50254687519323    3.98762546226954   12.11801074377240
In       12.66589785147719    1.38106790311925   10.43525251129892
In       11.46081383654814    5.15786618218435   11.45917099157284
P        11.40220508753193    2.76178571046351   11.98675992104124
P        13.70678056693660    6.24035002797508   11.38220467105860
P        15.79347186505762    4.33418408924048   14.20234633549813
P        14.64362988288767    2.79862623272556    9.91130590837990
In       12.77123888027984    6.67389739001621    3.65451429800283
In       17.78282251229062    8.66299556544749    1.37361689167196
In       16.72913192161524    6.87934260219165    4.15982846952240
In       14.39877240872394    9.09554604073181    2.25500287277571
P        14.59345452128472    8.12255694170802    4.55686964766093
P        15.74705846352458    7.30089370813556    1.22844445621264
P        18.62909830370016    8.43136865972182    3.68895933397416
In       12.29754700348454    7.35024647656173    8.15097777205369
In       18.17227716191498   10.95775191653913    7.14650662522294
In       16.21959979805258    7.44790488696685    7.82191967138943
In       14.56187934544455   10.30013911921676    7.40646747459817
P        14.33117205027047    8.46018800180791    9.12205099069954
P        16.43341561570670    9.81113236895688    5.81743297744349
P        19.53340971235321   11.79144311557579    5.31930052289258
P        18.17781832667284    8.86613134825805    8.51978297607256
In       13.48760427008397    7.18265572840391   13.66455238304656
In       18.55267293901932    8.73696229388533   11.67178131983932
In       16.76435236928960    6.42906962730576   13.29316334404146
In       14.64409272888766   10.08558241891886   12.33798208347848
P        15.56433859354616    8.49317761805258   13.99460818650051
P        16.47345988582077    9.66729509227063   10.71980137331894
P        18.22710697265693    6.29705778605328   11.27652774827162
In       16.26997350438831    0.63138490902682    2.35138447514781
In       18.15361486523276    4.22898986500617    2.45345010659473
P        18.38737021422046    1.78472869707788    2.63664865228754
P        19.76503802991044    5.29664298853635    3.99842405850952
In       17.24190738856369    1.25323010611650    6.51689306890771
In       22.53233922137851    5.54329989632102    7.04232026090941
In       20.78341044357786    2.09949471971732    6.00291954930306
In       18.56490515573836    4.51434939144884    7.62343765040889
P        18.57760206769113    3.10589934286611    5.52726479402614
P        20.47998925392222    5.95254907553225    8.27196710610498
In       16.39163473619378    1.18883693268476   10.70020577156141
In       17.90829356511103    3.26233736351334   13.48929611281094
P        17.53591161569713    3.33968959519889   11.04781956233460
P        19.68782068717604    4.79665960425670   14.19492263888846
In       20.62954534793366    7.26090026333614    2.83268255678474
In       19.75060879103540    7.87806446279369    6.87040937359161
P        21.70934604702031    9.28177918943488    6.59718613179500
In       20.42144359275360    5.41355716856794   11.96557618527043
