108
 energy: -7.886378880643 gnorm: 0.000138915176 xtb: 6.4.1 (afa7bdf)
In        5.70704713418185    5.16627963955534    3.84844639098365
In        5.08578990942814    9.06217326960616    4.27600415555076
In        4.73307724016179   13.43445595696477    4.01293705957874
In        3.74052388523525   11.33118769271866    0.96058296158182
P         3.68848173587751    9.31127511813435    2.29251539164889
P         4.03397377514158   13.66796099521667    1.65131483315583
P         6.01636068737048   11.35152927323072    4.48846674086950
P         6.84513865082698    7.32995845383643    3.94097422084038
In        2.52842167220611    9.32802816127449    7.15624630599473
In        4.65311301929834   11.04901529852894    9.78427087906661
In        4.81289047351087   15.46428863604884   10.10363982383699
In        2.91148472001965   13.50960352779317    7.39786057570246
P         3.96576396290814   11.28068310174801    7.40937435719201
P         4.09298163802799   15.65028251832436    7.73187182755564
P         5.78500357780045   13.18876663946158   10.35133380151754
P         5.44600326260804    8.72427198914164    9.86768190708839
In        2.89630967800198   15.84845498877201    1.66618170883950
In        4.58120028744468   18.10563679977641    4.38927937049492
In        4.77873120976552   22.51059950941845    4.85143586496495
In        3.19814495065892   20.44707694556628    1.60621145404076
P         3.78876589554119   18.10769711833474    2.04880930556428
P         3.92966831721085   22.55474836889272    2.55677828320226
P         5.71131751497340   20.21232155636256    5.09228864153107
P         5.39885480292567   15.76359050454112    4.63106476081553
In        3.03831691701364   17.88153968464775    7.85796372857283
In        5.12584330842584   19.85761758263707   10.47439437235343
In        5.70668531558018   24.38728357105480   10.75247180727476
In        3.24625234555594   22.25606807043098    8.35291865162643
P         4.25232457973384   20.01081581911164    8.15474789473902
P         4.45500750080845   24.35209778142834    8.63774059294423
P         6.33029716298987   21.98510798769228   10.93409539375355
P         6.04608517817163   17.55510632541922   10.64810414223758
P         5.74685697109976   24.65773112883348    5.58434063275929
P         7.09644083643901   26.39939963109627   11.02091957268409
In        9.42401553215718    5.56757855978626    2.63249620988124
P         7.85481036220601    5.87924822516651    0.81584236140244
In        8.16989275894195    6.25769881820179    9.12843721943734
P         7.55317680945924    6.71920262933006    6.80788467437320
In        6.74051332696932    7.95282949905649    1.52308180183536
In        9.32669360011688    9.35706162176612    3.93931379106206
In        7.94627412665257   13.86402585890761    4.41990710091465
In        7.11061412505435   11.39614372614869    2.26144659369851
P         8.64358276280880    9.55031799797136    1.58449133494610
P         7.51365872217607   13.83287897067899    1.98083214811269
P         9.24070002417898   11.74138936779791    4.66486188215559
P        10.71209929178289    7.28482602901823    3.82865597122906
In        6.40572183111657    8.75452979921958    7.61659636155934
In        8.05643424062197   10.85449268324063    9.82598982653277
In        8.37095764885302   15.32385907523025   10.10449547458991
In        6.45923883942249   13.29934534511397    7.97162749267561
P         7.35249637322986   11.04355577919241    7.44645390635949
P         7.61696196097183   15.47916665291786    7.74095053042943
P         9.19492439234029   12.99596240938892   10.37403373476621
P         8.82998606805735    8.49571096879947    9.91172725244543
In        6.29252307038360   15.96785346807060    2.31431115687892
In        8.01830021740900   17.81869588106371    4.62871580471764
In        8.17906299391406   22.43571344975752    5.00942444067898
In        6.55593746158252   20.43511034497739    2.76640471623699
P         7.44193089830739   18.17009562260262    2.24760761406786
P         7.45235380011667   22.76195569499710    2.65941364065019
P         8.98460920633949   20.07357288864253    5.07796513341050
P         9.48024175677278   15.78964940805881    4.74256861091669
In        6.61425560223923   17.68963351512222    8.24302934250170
In        8.67722236388420   19.72505119113569   10.26889713118192
In        9.10459522472794   23.79785285163516   10.54679348040809
In        6.81972534350635   22.09333690884471    8.50957823637702
P         7.75885629762315   19.86776221764796    7.96527489898958
P         7.97896410136438   24.27474574069486    8.38634630959524
P        10.27488556028965   21.61580155611793   10.38687516069402
P         9.60485202406237   17.43506391590991   10.52755636256238
In        6.57379152926611   24.97886192914431    3.30970505982568
P         9.22890332765928   24.61216084623065    5.53315675787864
In        7.73432438858459   26.69910324467123    8.69704958759134
P        10.76689912924420   25.60395551176724   10.62451373313183
P        11.31945601511346    6.95724024415997    7.48576527616623
In       12.16773665687253    8.14156198519982    2.04250751032209
In       13.05934552785819   11.25575890537551    4.18475870520148
In       12.93043028406017   15.23827029327285    4.14376298429347
In       10.39259946271287   12.39327172939259    2.55046508233898
P        12.00412010501151   10.58496512301309    2.04438474808714
P        11.81782989373237   14.38233203970036    2.10824438039314
P        12.16027190944976   13.23988999705819    5.38953239281328
P        12.59155854506846    9.19708921000102    5.42697451730928
In        9.93583952586718    8.95911767906437    7.74218685986495
In       12.54939836190707   10.93236629707331    8.94361468012330
In       12.30171039428868   15.15590729731618    9.30538794539160
In        9.90949131049253   13.19355012395613    8.02276521786810
P        10.98294425834290   11.14801497714681    7.02292712558768
P        10.95059801318220   15.34842620704522    7.21053834753480
P        12.43239646807754   12.92873616850123   10.32671646033317
In       10.25591937714296   16.27072267785498    2.44190443324616
In       12.96869009254315   19.00527464851762    3.81227910283475
In       12.90591272690558   22.49996971571563    2.60686305808247
In        9.89261280431873   20.30312441101871    2.78014535622354
P        11.35635759980395   18.45228823076361    2.02784039681926
P        10.45089504673257   22.70530790184264    2.48980247742697
P        12.65558903349708   21.28356263854608    4.70724589486609
P        12.12456754351265   17.26385371823669    5.35732978904256
In       10.14584854472615   17.55947899627006    8.12302187636826
In       13.11496302560820   19.17020981235917    8.50348233402412
In       14.03904591975742   22.81096400067531    7.85215013439972
In       10.60716825818157   21.68960235737923    7.94894405480917
P        11.22620418306465   19.49693257918990    6.90975526826776
P        11.89897690110228   23.55470938240829    6.88856276127306
P        13.49965976678552   21.29531325254867    9.66984089980838
P        12.80521147047376   17.39963952089196   10.17108300025220
In       10.19056026516153   25.00429121380075    3.33148735875551
In       11.49235049723553   25.51232281506347    8.32030931256005
