288
 energy: -21.036299823613 gnorm: 0.000157341611 xtb: 6.4.1 (afa7bdf)
P        17.43682571669423    9.37487136690983    0.32959590419357
In       12.63086235569887   11.32168294875993    7.59926555478616
P        14.64502901297327   12.70370280113981    7.37911934090426
P        13.29182563044984    8.99598001841902    7.56177453459540
In       12.76173880328781   10.52593174917470   12.81552379260729
P        14.41419945436054   12.32733867520743   13.14271049342491
P        14.47561716654679    9.65672546493811   11.31011903977278
P        15.82124453988712   11.97289519280477   20.19423606661261
P        21.56771218371547   18.98107247315194    3.43954077265415
P        16.15393847838185   14.63521254652651    1.32252003003127
In       16.01493446079137   16.21322171543567    5.28604978419982
In       15.33004303490008   12.86765001400007    5.03134451520139
P        16.85142679961456   16.70534359552131    7.52463651129572
P        17.28575129463108   14.26503138274444    4.37255050521582
In       15.98907318387093   15.99911335508351   11.15993451468663
In       14.73882186868174   12.95486912475704   10.77882438811336
P        18.11800152089652   16.87250032967036   10.28506267901994
P        16.90694374368594   13.96248881027961   10.02960773294316
P        17.17324649463768   16.23174740657970   15.77353619654004
P        18.41280331889578   12.74196002443613   16.34491445308182
In       17.05852276412359    5.68646180411879    2.57815993571333
P        18.93232458328996    6.13955188705262    4.11021692210924
In       17.13245116009715    4.86015427317039    7.30313123377641
P        17.00452448434115    7.02357071495216    6.07131073270895
P        18.63746105292621    5.54830423886812    9.19730602136186
P        18.43065643044444    3.65122490216294    5.52747553510067
In       17.14617333895214    4.37327873324021   12.16584583979655
P        16.91187838207659    6.61441261375202   11.10752341721891
P        18.66046448299257    5.45082700008850   13.80700692634915
P        18.41782790005549    3.02295615689535   10.48584664890269
In       15.90656305930666    5.32211404124666   16.46449192151077
P        17.45803646332319    5.61187539878038   18.29369725353589
In       14.66083717740925    8.67419661441339    3.81817045052996
In       20.37475989361918   11.01117655936148    1.45454678497232
In       19.40678366205578    8.56293044410136    3.59556517093325
In       17.01736430565794   10.86422681806417    2.19219903269071
P        17.02964341619591    9.23160630374773    4.07287236513179
P        18.85529173763788   12.39409605052723    2.87602670628509
P        21.93934277339332   12.80181910899728    0.71620303711403
P        21.58783051148682    9.85427696174481    3.32552208471203
In       15.33550371559896    7.66227896878853    7.80263923836560
In       19.60375618873854   10.66491776468036    6.66644654432982
In       18.82488473107346    8.00021064298238    8.61526009248907
In       16.21755603455857   10.87758620946225    8.00683886511440
P        16.66083158848727    8.91793047692742    9.51340869174250
P        18.36699528591531   12.06987017860446    8.30505691101014
P        21.47039487293560   11.84903818112867    5.50074771211061
P        20.89994942951401    9.46443878883694    8.43214777142412
In       15.47538410213688    7.85178887938408   12.68857280153989
In       19.07230802894087   10.24454530836287   11.60383518332550
In       18.81523857647498    7.93865837304361   13.95169667177409
In       16.12287754878291   10.98990552903548   14.33173106494865
P        16.54842987119910    8.58972976408118   14.79194691892278
P        18.50454892547310   11.41414482059871   13.71797209706718
P        20.74136159723437   11.75732584454631   10.54208925171514
P        20.80614776884316    9.30899043687716   13.16754720111070
In       14.93767077771064    9.02589079981184   17.92294646271738
In       20.77212053617416   10.54210365856016   17.84855390863192
In       18.79736731467117    7.70374087204929   18.23960007158280
In       17.73523327572809   10.53132739116349   19.77201739188294
P        17.29229928436747    9.55730435424880   17.51279832782286
P        19.81311323144412   11.88764061067223   19.70188203114839
P        21.42923450737123   11.99575391589341   15.93962202926017
P        21.23214764764752    8.17971341972885   18.49129537810047
In       18.57083798926831   14.33758728741486    1.30860370497611
In       24.49865604749294   17.11067663113329    3.14467425000106
In       21.56334295418299   13.88990434799416    2.90229622792962
In       21.32538935607763   17.02379157786935    2.01195697133257
P        19.68398666294738   15.54276460376007    3.19756856670269
P        23.48612213994996   16.39406988697502    1.01592301091963
P        26.92265858557628   16.86402823908184    3.51779472963454
P        23.31891840041483   15.14126004897932    4.13174238040502
In       18.25518531404349   13.94887113385674    6.66999918807831
In       22.68997771222390   16.79000302849072    7.58171396466572
In       21.40732124767502   13.53684502618052    7.34013190684437
In       19.27945744743731   17.02529141378508    7.13521968590538
P        19.69246398739342   14.94756661980119    8.49552617798932
P        21.16720837626675   16.30331686992593    5.68580353672697
P        24.90178384928416   17.42752180992528    6.68599609344951
P        23.17540811411537   14.62627201758851    8.74879731808302
In       17.65363134380049   13.32047665358416   12.32348937810771
In       23.18880750838596   16.33850005649744   12.28358387501658
In       20.85552381034246   13.31882827656643   12.49046402706959
In       19.62267046872052   16.55816654029341   12.22314405022046
P        19.15431545941033   14.67001522394935   13.78403535072829
P        21.38406828463952   15.75034623677795   10.66039283860747
P        24.94897270981898   15.76960985512144   10.60188713527785
P        22.63703622611779   14.45669446591502   13.84769115109001
In       18.45895658130925   13.65749140686515   18.59449271364065
In       22.75290337294449   16.77872026113748   17.02787718169482
In       21.70419581270398   13.73776805954496   17.71204366592384
In       19.16438256203942   16.90305779264094   16.99924556726442
P        20.17916860443429   15.44213140681567   18.71875323659771
P        20.92438944941576   15.92127145486687   15.55587070103061
P        24.50114131871619   15.76512070120152   15.56143201947372
P        23.61255208543028   15.06371408721315   18.61236807349184
In       18.43571795596176    1.72879875736408    2.43963452716776
In       24.00190829180349    4.85161469550798    3.38751037955141
In       22.22047796163758    1.70239251106426    2.14630126982415
In       20.63165864412642    4.98152843258576    2.64078116651126
P        20.41471726410921    2.64749510482634    3.53007685966541
P        22.23211036581376    6.58176251228664    3.67970988088000
P        26.08335519236381    6.02022853664602    4.13583782663048
P        23.36216039566112    3.70154754387770    1.28923615637779
In       18.20044806330284    1.55804102137009    6.82010113087094
In       23.31429247627301    4.83907010730848    6.86973294796872
In       21.82391713470615    0.90779761423037    6.83104925465269
In       20.30207856659122    4.24271677908657    7.84289467543817
P        20.12056826997934    1.80952392619823    8.36469623506930
P        21.86525988881071    6.03239656235265    8.56288532443371
P        24.83302218203985    5.87738642763978    8.57638082812006
P        23.78428416460132    2.39309998040465    6.92086286665935
In       18.61812096352510    0.92244295935997   11.73782839336327
In       23.88321685578299    4.48017341437604   12.20674664263195
In       22.64358099127892    1.49753880300243   10.98455386426953
In       20.48375569664656    4.25859247636975   12.58274962334218
P        20.76949550050760    1.79063482396385   12.55451901865012
P        22.18849614383575    5.92449757960266   13.33681849226668
P        25.66962551626943    5.70111711265866   13.46828634178249
P        23.87714700837884    3.40116301324194    9.96289982673300
In       17.63096166724225    1.80270626261777   15.74583133983865
In       22.83287916968425    5.01102045532279   17.42345907667030
In       21.57862864946831    2.13223741028052   15.87638531847094
In       19.57235303435063    4.36190454443199   17.97633088919627
P        19.52853836497281    1.99745022232061   17.23548617870576
P        20.78065339195819    5.27656684125585   15.99145816474132
P        24.64215377950930    6.61383562514248   17.96008325477892
P        23.40842004693060    3.74023961541254   15.34016211510996
In       22.25665363448271    8.07912032783911    1.67581052412943
In       26.76167733586035   10.94034571005813    2.22749285762112
In       25.25752719527703    8.20769624473109    3.21403139467937
In       23.70401805809618   11.03762327546750    0.73280136723884
P        24.57274301511364    8.68831494261648    0.87333300697165
P        24.43241280211703   11.45159126139139    3.07778120166863
P        28.90076042552346   11.99155580441201    1.47969834851086
P        26.90503608071022    9.67604636418189    4.38402808768376
In       21.37622445847337    7.68056468156645    6.75399943337338
In       26.68782219342429   11.39340425085046    7.89022974503452
In       24.90388639328556    7.88143225365051    7.09311083403393
In       23.41468664490758   10.89963746719972    6.81224254099746
P        23.20930482826738    8.79258708749453    5.47433195396556
P        25.44956519250517   11.97395873351559    5.80124993381108
P        28.71878635800190   11.50378993163610    6.42725141963984
P        26.32558914252476    9.09180698231316    8.72721356074920
In       21.42988502792796    7.50960959430888   11.56044237296636
In       26.40295232010271   10.77263372425121   11.42733869420458
In       25.11262722751188    7.45108782973437   11.76582786299127
In       22.90499505610848   10.60887509807402   11.01148343267488
P        23.36928738750227    8.29261926551389   10.18770066864175
P        24.68029745428779   12.25317268263764   10.34174838032375
P        28.81917531461674   11.38753603385942   11.19199556469703
P        26.56672802851788    8.96455067061946   13.11091309722287
In       21.48500141145572    7.68793119793932   16.08795758743916
In       27.68555190517349   11.26398801327051   16.14740278443248
In       25.29682436642911    8.11763199555402   16.10735823992075
In       23.64014498520400   10.96227204706409   15.48682249688795
P        23.31062883448360    8.61484371059467   14.68004500017379
P        25.59886872550396   12.49189499413204   15.58287101373999
P        29.62973154933005   12.83928269659412   16.31975921796685
P        26.37881569123374    9.76781775119131   17.62169849648444
In       24.93812930895141   13.86966952211257    2.69902421529410
In       31.05651304912763   16.69454810471536    2.08720193177105
In       29.49522013478883   12.96605561488722    3.67386151619502
In       27.94760117882692   15.16630020591718    2.06460351663546
P        27.10727062845440   13.67460086586485    3.91045877332445
P        29.90650887254752   15.13455809294469    0.58571225212477
P        33.37476212600365   17.07816991104512    1.47287739376130
P        30.90160238204104   15.02436942541213    3.92581225119468
In       24.88254833038103   14.10414700084011    6.99266242652843
In       30.76943358731519   16.34682249071285    7.57346154734609
In       28.54160258226442   13.87644542992052    7.17223154697062
In       27.21777418974800   16.99537476916669    7.40852476489992
P        26.70732270458324   14.81884257761297    8.56243449771045
P        29.04428528934382   16.51854335211716    5.79527179028967
P        32.87945115094386   17.60115377076949    7.67690255020846
P        30.46757128743722   14.16317870741804    8.73654330023012
In       24.46348391695910   13.30931673785992   12.57984690883363
In       30.25738251804751   16.39887522924559   12.29101762720009
In       28.18834643005587   13.43365103055827   12.47510529362737
In       26.80659036084109   16.50343126317412   12.08834697629585
P        26.32719616010827   14.60506891977184   13.66129119616036
P        28.62601157268962   15.70589652086381   10.56714870225969
P        32.55589513791591   16.74039392591909   13.09141496418355
P        30.01317338469839   14.46471151161628   13.86039401180974
In       25.30368475882850   13.39608864730958   17.87839805678870
In       29.74870333969499   16.51467775177849   17.38801796661305
In       28.98328920717450   13.44621649367987   18.63741384964690
In       26.29838409560401   16.54904164756570   17.09835060064364
P        27.00687045717990   14.92857881948714   18.83650515585290
P        28.14599989468605   15.60198782012386   15.72864741950742
P        30.90385673796958   18.15017246247245   15.99641655567928
P        30.64586119893323   15.17056458645781   19.26854352171442
In       23.92484908941268    5.39265139802156   -0.39346964194262
In       30.24447935740685    4.96525878383936    4.42591532343995
In       26.65883302834942    3.73026028984280    1.62637369445257
In       27.82302915299430    6.70818940068764    2.45627541568616
P        25.86819580257384    6.01310928114839    1.01728362690520
P        28.89462186386514    7.01506587760468    4.70476878555791
P        32.69756986240215    5.27854602763289    4.12069379150918
P        28.90779521689443    3.75960723761043    2.69923290197264
In       25.50190083556723    2.08513379918918    5.17091976148245
In       30.31009334639178    4.20106571612819    8.48279344772996
In       28.65669068513278    1.88856945808504    6.43579493892329
In       26.47543564878153    4.25323157861690    7.61620480711190
P        27.37698031619444    3.73801185796094    5.34272812674701
P        28.14411072794671    5.21254135206172    9.20036615092681
P        32.32637797297852    5.60762582205387    8.94771586950613
P        30.07706968688225    1.70727792245265    8.46733841252792
In       25.94160903664440    2.00378143623325   10.14992925243393
In       30.90513836480601    4.17515366065008   12.10407198802410
In       28.92834407497970    0.72345175855257   11.93406222975028
In       27.28324598410585    4.04233886567909   12.52778581794253
P        28.29772067320463    2.74418079566392   10.63636608545759
P        29.18084168191697    5.31811876732270   13.54134234512000
P        32.75501584641064    4.95155842011115   13.59931826780567
P        31.08228289116095    1.72575925751725   12.57782212138705
In       24.82156234388372    2.30464973507560   16.81498898921700
In       30.14898198398769    5.08803926768586   16.93225216969435
In       28.45132404642040    2.12036497590059   15.86734279296884
In       26.76390214907050    5.42349004550471   17.42171852346750
P        26.54420683657515    3.67000310762739   15.66345295874016
P        28.45988055875627    6.75416904744568   16.11123149578685
P        32.44814218290710    5.70937663341562   17.64094280096408
P        30.51495248037228    3.33818820015654   15.15596775841865
In       29.36793199346511    9.34917465887343    4.00781068088938
In       34.47702704384715   10.73227517759798    2.36576775843419
In       32.42673256643724    7.09751611120637    2.44170246107464
In       31.09192231726711   10.82206500792394    1.37744298004365
P        30.44420398527918    8.49459513948879    1.93866096581532
P        32.34725534490280   11.40561987367665    3.44387508311173
P        35.96347209560601   12.64820593359255    2.31858802163838
P        34.50063337544061    8.34075833399095    3.03142876688114
In       28.02256218226302    7.40453675452538    8.03487939174996
In       33.55704696036801   10.06887187671030    6.68729005217845
In       31.39519891720820    7.42085589115641    7.53277779231993
In       29.95637459195276   10.44652236554961    8.29777714232914
P        29.92996933647664    8.22981971932629    9.40817944538124
P        32.34502313862271   11.00726438053253    8.63895400917468
P        35.21879220747403   11.82536993468933    7.30710084283772
P        32.93563897266883    7.88951187450694    5.60220036480388
In       28.41738002980866    7.43115192344938   12.41551116026655
In       33.21573417674072   10.30738987705192   11.83528694823832
In       32.09266140289492    7.16447089192272   12.60511467521697
In       29.83128253376712   10.52505112582130   13.28365514263861
P        30.25392938546425    8.17388806997066   13.95647001583131
P        32.10537092073975   11.42173957085642   13.75968965279196
P        35.49399825031187   10.84619830067600   12.68415405648239
P        32.83708582683279    8.24804391215858   10.46379143627213
In       28.28880176736168    8.26194276255984   18.09129752047748
In       34.44703099566145   11.61447233034992   16.26471874585803
In       32.05239652019010    7.99680853191458   16.76671717118148
In       31.17674654377422   11.09796248111062   17.16945753009421
P        30.59664151881160    9.06943779097434   18.46743524494928
P        33.20239654841257   11.84355845693360   18.38910673320418
P        35.55125737620188   13.50996915457148   15.21810199389663
P        33.65560338879832    9.39659116995860   15.43918350591458
In       32.56491929243558   13.72992559560057    2.56907959663573
P        32.93709826502649   13.61557936808615    0.17824833423325
In       31.94334675050500   12.97025514188756    7.12225038971035
In       35.27614051412041   14.27788844335842    7.30745725423594
In       33.59515973989863   17.02489905905078    5.43193561356628
P        33.32561777373243   14.60308122399606    5.83071599592231
In       31.57250927002276   13.33295353476022   12.25511135264004
In       35.17829833102051   12.86326506991143   11.27783566227627
In       33.61703150431823   15.87449709456571   11.08328589247176
P        33.03903666456894   13.60985505005262   10.24153931863923
In       32.57856352700173   14.21257811268193   18.06587127341218
P        32.50007927852472   15.13776328225953   15.83361941173549
In       30.16179959781874    4.05687725418146    0.62256711899132
In       33.07958880891272    3.09825670383600    3.09385896276195
In       31.86279069461510    0.68140058731857    7.10911283234227
In       33.51500833490615    4.24470906605212    7.23147556674209
P        33.66628745844889    1.95857206418403    8.11845694840329
P        35.31108548388966    5.64051748398376    8.18011169980173
In       33.50582115468188    2.03684947624023   12.19888229060101
In       34.97044458422754    5.25244180323838   12.53028492192078
P        34.37242325563552    3.73958388637822   10.66986412712867
P        35.37593499188074    7.66656889880587   12.80974317356814
In       31.98646354010884    1.73341691164794   16.32367224225060
In       34.50329806473489    4.60425530658265   16.99709939185212
In       36.29437797738715    6.89936148612864    2.25284813701267
In       35.24065564597238    7.12432698145653    6.21976870220425
In       36.90058579729526   11.02562379927268    5.70345529198846
P        36.87872659105373    8.85390458448541    6.78418419473095
In       35.33781868822039    8.28225492553982   10.44947025137298
In       37.80609991335668   10.28109054606784   12.08522507098176
P        37.28108600484637    9.65350457776400    9.79548542732947
In       35.43969798607282    8.22735683877209   16.65424504217678
