36
 energy: -2.284122771189 gnorm: 0.000692953676 xtb: 6.4.1 (afa7bdf)
P         9.16394898723881    8.05029830396741    3.04092788873048
P         8.54550661328762    8.84287749195620    9.13727336887053
In        5.84020350658638    7.91660045310520    1.03538943360217
In       10.86800148198041   11.14654123674916    3.56445173569112
In        9.41533279172095    9.40853451235462    1.05053379920780
In        7.00976575765980   11.29671648145703    2.72559566104634
P         7.03964642874608    9.98540656919155    0.65338058111866
P         8.69397358120275   12.09074187321900    4.35420586355976
P        13.11865076047540   11.87377632735218    4.22920601314591
P        10.65974025523003   11.53939624638570    1.14834469988101
In        6.20843076087193    7.68782798764786    6.11309078977366
In       10.61378415715360   11.46964896601261    8.00441590685668
In        9.45875685046377    8.61654208850897    6.89889827485823
In        6.78016425369079   11.28593246813134    7.29389106550483
P         7.58439454308331    9.66225609858163    5.61246242490925
P         8.41174723280575   12.07940655103652    8.94570509221728
P        10.63626116128130   13.31865292788819    6.34406344098897
P        11.71546114521154    9.58191270886049    6.88107267255215
In        9.19275402979141   14.13928245257241    3.06506337710741
In       13.40420504227186   16.29600697142380    1.02318495017091
In       12.62793544713583   14.18403350164729    3.55045084973807
In       10.56967425393601   17.44318621297431    2.69534750161739
P        10.72731615107684   15.60021345662815    4.33687542478843
P        11.71459402820967   18.06230807634680    0.61790357435625
P        14.46149818586234   17.20711218175281    3.00559439870519
P        12.17761435053169   14.15547970181838    1.13578846369434
In        8.55967474917083   14.53454415100983    8.87663517529495
In       14.13237402632926   16.68202195969724    6.85771633698083
In       12.23717441492669   14.26977324161908    7.99026490324261
In       10.48517821890830   17.68234659794592    7.26443472002259
P        10.61707143043227   15.88359287314535    8.92839809383698
P        12.28623718256300   17.78183590433207    5.57499276342103
P        13.49443536620539   17.37664483698430    9.09374427754922
P        14.41885025046741   14.24488315265920    6.85702662814074
In       12.89715048224619   20.14426950889278    0.98964056171061
In       13.31685028842758   19.96067436602180    6.05610928714144
