100
 energy: -6.559058151988 gnorm: 0.000480535860 xtb: 6.4.1 (afa7bdf)
P         5.91761855704563    4.15831539930176    5.47674249440983
In        2.88802891732717    9.07729027034503    2.94340840924192
In        3.87151465655329    5.47167518239072    5.24964271743653
In        2.24581122360223    9.22506861762848    6.76077173699105
P         3.07448230994752    6.96308337882933    7.01486447596882
P         3.09125397018873   10.55170072387436    4.88494473365169
P         5.69633773862480    9.91107373576952    7.37191230985789
P         4.38192163813705    7.21623630734106    3.55335254732240
In        3.08857641702348   10.17599739662326   10.63356245028084
In        3.76646434335932    7.65648714326263   13.43092820470204
P         2.07737265152410   10.80483115597020   12.78278422494978
P         6.44854402070876   10.96589233031986   14.18795760340885
P         4.88705396766242    8.70460473558231   11.50808343381747
In        3.42049857583969   14.23055277772439    3.64539051738565
In        5.02244740387869   11.76118511226725    5.87024498043327
In        2.28750994244758   13.76733843186745    7.75304378235411
P         4.66697077046944   13.46817538876807    7.62391769622844
P         6.64553150857038   16.41869387933410    6.65162731922879
P         5.63562848559971   13.20187961922434    3.88963855105796
In        0.26119303825724   11.65830833401719   14.13862399855427
In        2.36124799685623   14.10484239672066   11.59878606411556
In        4.14376970470902   11.74849728683843   13.80733912090621
P         3.69495680480219   13.55073790197050   15.38966839482794
P         1.51315418912114   15.74199887213058   13.13104764110167
P         5.21449972018655   16.51949886649112   13.76680227492582
P         4.49938531438750   12.86895346800365   11.58800481904252
In        4.43272631929277   17.20797736525814    6.11739856773302
P         5.83479657417654   18.93910486128868    9.05988418928978
In        8.19457994371455    4.21516833630423    4.65816604832777
P         8.45046498255367    6.28053056348440    3.36118001404602
P        10.85878484556195    7.39174149560775    6.89988606522915
In        7.68464475060478    3.77296269316085    9.18513343187023
P         6.20207463225574    4.84332094655196   10.77103413637531
P         9.01296781716340    3.88445442151832   13.71391776106098
In        6.33098684331419    6.59525368687050    2.17754602280624
In        8.78312615748332    9.39789631440244    2.23133744491554
In        9.09816232304648    7.81977169030632    5.20908382252495
In        5.61374500136488    8.43631881576592    5.37441074159782
P         7.20888987860988    6.98349054196166    6.57562229363512
P         6.77339642756304    9.83769520921676    3.64756154122784
P         9.87198335456324   10.38724176985663    6.92438640674504
P        10.74737798833380    9.01468060468436    3.69922157459711
In        5.31195399922792    6.92434323175541    9.85447968028872
In        8.69410994288268    8.46782888688046    9.48118021013565
In        7.44625938829715    5.53437926781549   12.81914038480605
In        7.09595114939040    9.20754254326001   12.59037164602261
P         7.26525513768146    7.46424387740899   14.35157122766888
P         8.45115378429135   10.49190170847874   10.87526436688387
P         9.61680808963803   10.17272063022806   14.46497993146434
P         8.95342358728438    6.81432931831710   11.28951258259586
In        5.72031807230940   11.47557108642095    2.12237895197351
In        8.47341380146252   13.96195514469686    1.97643396946490
In        8.07611576714101   11.10489957787176    5.38238961774482
In        7.30558800910141   14.52242735443367    5.20296590350140
P         7.67277856339000   12.90543306426031    7.06941483856355
P         8.38211553391191   15.96889815460629    3.42596601162551
P         9.68308844525118   15.47408998370673    6.98807676283016
P         9.34627473633648   12.33601606545474    3.63443434480364
In        6.27971576897597   11.61808829026485   10.41288617519973
In        8.64868102451905   14.17204054463053   10.04998348096493
In        9.47016325115594   11.88453845369338   12.67586509278185
In        6.07299272191165   14.57252010514290   12.56620769200601
P         8.08139745728944   13.66639226171806   13.65762622395867
P         6.53104922018780   15.44264884888601   10.24167049330369
P         9.66171170230703   16.35733663267741   13.01170879363469
P        10.74054462952646   13.16976167738119   10.92071844922667
In        6.36463253663044   17.17192919648711    2.73370338104351
In        9.64920487778735   17.17289055473906    5.20072141591245
P         9.26122320945865   19.30985755679462    6.29159499591701
In        4.66151684625737   17.03965257817642    9.96794972473246
In        7.92478443101482   17.14192679076268   11.48142369733567
P         8.79572512240492   17.90688473229858    9.31250319206532
In       11.59820581423902    5.10974923014573    6.83124152359967
P        12.74730782753897    4.19031370317123   11.70771322670930
In       12.19580160451964    7.08098894274773    3.30737460351602
In       14.96852657551965   10.21429115622471    3.22902788813080
In       14.72806990028019    8.13473301183259    6.94810263981345
In       11.78581314486137   10.57484900731863    5.35634162842802
P        13.62696587178648   10.26552441677896    6.98341323220202
P        13.20590293033085   11.83199054132444    3.71337241778062
P        16.21428963408069   12.58286409064580    6.38587917666990
In       10.84229687262991    5.30958024817013   10.77811638938860
In       13.52570229852017    8.15196149771446   11.02729230343717
In       10.11408302624964    8.20556412288170   13.03798044011679
P        11.70264184874848    6.83036365211318   14.28561858012644
P        11.36926707681400    9.37731998908198   11.21939577720700
P        15.02504947992775    8.76269221837222   12.79900120184041
In       11.27973651134557   11.81825014796025    2.15171795968542
In       14.13437017561033   13.37930631421456    5.42118944633084
In       10.50828294681395   13.74733366071667    5.37717622059393
P        12.29767442643945   13.27874404790979    7.04420720001478
P        11.66223431530244   15.01597850471750    3.63109374639981
In       11.47409896499330   11.23072889092422    9.58788707040246
In       14.14684269975062   13.86339404497696   10.23430510230238
In       12.49663469779962   11.00082600537233   12.80816593304765
In       11.53531435740607   14.79836148822570   12.64362889765225
P        12.08533823731106   12.97512934032734   14.22317481741274
P        12.78799309684825   15.83363737330358   10.74633874247995
P        14.33624898446282   11.71551007284391   11.34400303270256
In       11.11724916638329   17.22331313205529    9.61925699942122
