388
 energy: -28.663647083415 gnorm: 0.000087533451 xtb: 6.4.1 (afa7bdf)
P        15.83260073678886   14.21766312960448    4.84261728268769
In       13.21006028050115   12.39924171763233    6.70753058277605
P        14.19186596307223   13.12250115627614    8.80822541941874
In       13.09635625009517   12.91844374728009   12.44498613117836
P        15.06460978018949   14.08704811521998   11.58221616507079
P        14.01246285894229   11.73989432138968   16.94299573385480
In       17.44697715090229   18.38047339856127    4.57854136579780
In       16.56298334208252   15.73237180695352    2.99782436384389
P        14.56974753268166   17.13640616283734    3.16377886872980
P        16.13842025379909   19.81047426064132    3.03181230936724
P        19.81991863233116   18.52879637634274    3.85500676376261
P        18.34884315870641   16.01782082302597    4.72843458610268
In       17.87094822621306   18.42698827620213    8.42968649662553
In       15.02871018529545   15.44830556207826    8.54845024496528
In       14.09085867942630   18.56665109080374    7.41505621809600
P        14.83851679616613   16.49784040671528    6.33275422057931
P        15.80403307890414   19.82779470924345    8.67516541769919
P        20.36385488392281   18.55503156999663    8.27720189291081
P        17.02652947256838   16.41955716407011    9.64646349470688
In       17.23602415178723   18.70743496466296   12.96749178121354
In       14.98768833169936   16.25315189320112   12.82153736495416
In       13.48058066884895   19.35262628276911   12.26238272664270
P        15.06146682864886   17.94351235225333   10.99370363959754
P        15.37220719010613   20.22534436449843   13.60465317838149
P        19.70897387781177   18.65920914824649   13.19006242399186
P        16.84817025660962   16.73072792784633   14.43809451246953
In       16.66585657396365   16.99063855563832   17.64352072225459
In       14.16018990085190   14.07188005593411   16.30098581631981
In       12.82963229230955   17.83455674578124   16.27077912066550
P        15.16813081815565   18.48435465272825   16.30606956765443
P        18.84654493941029   17.16645714259600   16.42602168706669
P        16.51666099415436   14.70299281933441   16.61287349709261
In       16.87561238118302   22.08255055181317    2.48669060252504
In       20.58080146204884   23.70628483352684    2.93208677872089
In       19.34140091806787   20.00453820482064    1.88459985053165
In       18.42258748182146   24.45164790653590    0.08660703090217
P        18.58501299588857   22.07806505565605    0.70973999380405
P        19.11292730191780   25.51506657225528    2.16792688742025
P        22.55721847505872   24.90149658185034    3.86819471651302
P        20.71467701548503   21.31474590827305    3.53946078580437
In       16.44920616910494   21.41679523839471    6.89143718964697
In       20.40740652942510   24.17110252353885    7.42570272825044
In       20.07226041214631   20.64308800125424    6.95082686736512
In       17.77303237862697   24.04573563457702    5.37698639024706
P        18.41252158445457   21.62867092682613    5.38402125925490
P        18.44219699127679   25.70001904033076    7.10513143581192
P        22.04771120345501   25.71884092811487    8.50352217951326
P        20.64741417336486   22.12496057599792    8.85653785340993
In       15.91365118704737   21.65581252408336   11.65052275658683
In       19.46449999301071   23.79811669789076   11.86002112948108
In       19.61937432452040   20.25104822729713   11.25591883823735
In       16.98547576650150   23.96541359950580    9.53234130391228
P        17.90179478387900   21.73123757105277   10.16105860328573
P        17.25952136083363   24.94136267986443   11.77894856134545
P        21.54023582315763   24.30127227702294   13.14843598294953
P        19.76692510684660   21.74342974009825   13.26541621994271
In       16.01030024260216   20.62232450871156   17.20496552235989
In       19.35075238778331   22.76423169403239   17.63113679530526
In       19.42812183857886   19.60578141368286   16.24985615458366
In       17.18954759134786   23.56046739877824   15.08641283415392
P        17.63689839708811   21.14001321671779   15.40782985662790
P        19.60043732621657   24.02925873958068   15.46445585261803
P        21.37548281367556   23.67002896339386   18.73459845621074
P        19.90113344009195   20.49376479266041   18.50201271525106
In       22.41986082533519   26.24361759262505    1.76382862333574
P        22.66543889785627   24.65431217476715   -0.04383960876482
P        23.78230505308040   27.83203346804402    3.05460094146394
In       18.24166342804109   27.66349752997736    5.60392339535313
In       22.57051631508675   30.73693561646905    5.04074464800846
In       21.34317664941344   27.45969797973563    6.86050592184529
P        20.30309805264020   26.59440384067057    4.77273616880407
P        22.79609524485953   29.45963827342278    7.08168665530283
In       18.01639217452742   27.26691571762648   11.54928889502830
In       23.48307624323526   29.67893210598655   12.06232130660113
In       21.51712133607341   26.61272503771726   12.14220417352570
P        19.94521877371135   26.55083482780364   10.21928249689688
P        23.08934469867073   27.78735478916287   10.57343925671572
In       19.69044988772476   26.22064306439653   16.55510702521734
In       23.27229753734331   24.33705480066207   20.12952710590849
P        23.53783841663683   26.17284975630037   18.55108520108769
P        18.89973987403983    6.79264442184661    3.35333032680022
P        18.48216143116645    7.94804837787323    6.33567443697025
P        19.62788639738317    7.77190978601955   10.97006338699374
In       20.44543330982379   11.65796692526380    1.82978999300647
In       18.48249949209361    9.18599851911227    3.11580368360795
In       16.74787096102339   12.34874665900708    3.51660932679773
P        17.47431933604340   10.49042604761553    4.95646155097157
P        18.57609576716998   13.27158914975340    2.11897901834662
P        22.81601619142688   12.29101923914254    2.25336134260325
P        20.51452417561172   10.36628997534677    3.95715768960785
In       14.22903390813251    9.39006920031935    9.48069886433441
In       20.01277131252005   12.38224692552467    8.07212937933907
In       17.94227892981606    9.04726721813894    8.46550943956221
In       16.49573110315297   12.21487927017774    8.50556504455102
P        15.76357452681483    9.97722277846231    7.69455847716075
P        18.03275363711984   13.23327933411153    6.83209304589762
P        22.43357501121509   12.84971086726786    8.48680273901124
P        19.66762820413981   10.43955916659039    9.59381960525000
In       15.03092772627942    9.48310819766919   13.72440642044701
In       19.85235067599653   11.89057900904559   13.21487831159703
In       18.59267025133763    8.53639280398453   13.09155091497578
In       16.77161735312675   12.59626299097065   12.62915825979561
P        16.87254111384032   10.13935613969781   12.27169033428239
P        18.22900354873648   13.20841309565299   14.58256525755483
P        21.21307635311973   12.51072612377998   11.23130248390595
P        20.15631711088649    9.81546786399507   14.55711991413656
In       20.27119457477286   11.24518285332427   18.44526734118082
In       17.90210441797063    8.57089062274302   17.30305613465670
In       16.30500651877023   11.59823571488761   17.82159239464196
P        17.97416932428666   10.76445994062186   16.18056644521255
P        18.15933224339350   12.22510274097547   19.34414125146694
P        21.30213898746877   11.96795716434306   16.26783443968618
P        19.42087885632964    9.01674748550878   19.16711915685697
In       19.85043016736784   14.12516163583952    4.06854881208929
In       24.42312662832858   17.99496708805757    1.78756420191977
In       23.44063997393267   14.68536095656568    1.96010238955819
In       20.82653692805629   16.82331127351215    2.35902965087760
P        22.04810852091554   15.31553852131720    3.92749430724541
P        22.11635713746822   18.45262988531481    0.98824485402956
P        25.57964894165422   18.94434359933317   -0.18909143762461
P        25.65078643497841   15.86675019137649    2.21322585015131
In       18.66820501332508   15.22654796704301    8.21626983633562
In       24.64900577058901   18.95103577050473    8.12042267827628
In       22.27992711128605   15.35369587558458    8.48413455218633
In       21.93508460978313   17.94476333335628    6.43131754883719
P        20.57669486431463   15.83967606707763    6.71563634954786
P        23.24034001095388   20.08826752359839    6.39592406275530
P        26.89043523671362   20.09046101177160    7.94991855071341
P        24.49155011871984   16.47419344902311    8.26279340145609
In       18.56042534115279   15.31871340568788   13.26196149393374
In       24.28336058215554   18.08649909919413   13.23410769430416
In       22.42268185033782   14.06444024256540   12.79924971083734
In       21.15706153846109   17.03422419623802   11.97839746305502
P        20.91735793842326   15.60864943771167   14.02351526273220
P        22.65788733036709   18.99006069445520   11.56958144517379
P        26.46560344851342   19.36810996732925   13.06189259179096
P        24.39358475440003   15.60810718420410   12.99263773613181
In       18.61719533618357   14.15809689063191   17.85969354419468
In       24.08078241257980   16.93934812367386   18.25336250865594
In       22.14027725647884   14.04280434462330   17.37867738376985
In       20.42450251341472   17.20963744970775   18.35342304263816
P        20.62451241594282   14.86844418642151   19.15122034704260
P        22.29252261797479   18.09338489744286   16.95911174109951
P        25.88227605366062   18.62175343458053   17.92591083664517
P        24.52241118011485   14.51877636346768   17.90344079859296
In       22.49626750999648   20.75540210034305    1.87855750538976
In       27.75918147905138   23.85202450824950    2.05236054641276
In       25.80197215157486   21.09660956798020    1.02820473392729
In       24.46023603271967   23.42968315691468    3.22636465229839
P        24.59019250696674   20.93475499257980    3.21065289672826
P        25.49262251542494   24.43409586531067    1.21052542099819
P        28.89027236812754   25.40899657540130    3.63785520408635
P        27.77845971734970   21.37603842020809    2.50862556716508
In       23.02181871556436   21.90337761769598    8.10796245995260
In       27.02271796013425   25.27693433596464    6.86321354288770
In       25.98966293751202   22.00720500830626    6.64252964917180
In       23.76749896591422   24.97997910575124    6.83944016542075
P        24.98554149089890   23.47215396212394    8.41084595979975
P        25.31117602516981   26.34479429067011    5.38430873423357
P        28.56067515910765   25.74772704481452    8.77465901746998
P        27.55930574628479   23.39987311174427    5.29955421538641
In       22.13070413055700   20.86005874327217   13.15743943944128
In       26.74222753424849   24.04276087053439   11.86934859262553
In       25.28032330526565   20.66139026265819   11.25747721530832
In       23.28794854529270   23.92068099741672   11.39586720505401
P        24.25501373341932   22.18677429282289   12.93029400380289
P        24.84491612329094   25.59716743019925   12.39804811614015
P        28.26684700169407   24.62499944206441   13.75074300640737
P        26.88103169716021   22.22002184051952   10.14910937468678
In       22.33596005523318   19.99806578610769   18.58767613177367
In       25.87539432838706   23.76217286972780   16.21140492676696
In       24.77319557869772   20.10232734596273   16.24124209773450
In       22.65878939745030   23.00336136205675   16.72188020701896
P        24.17343382001905   21.62047831958998   18.11843335160810
P        23.80746215857620   24.24202857039810   14.85252300923727
P        26.35316691210606   25.24030880060178   18.15168604179936
P        26.29856116840880   21.62306820449208   14.96562210525080
In       25.75199005954041   26.79981765614912    1.97447191522439
In       29.26733959243293   27.40412784353973    2.17441057571936
P        27.27062887800252   28.03385947697176    3.48768831448883
P        29.16333401658793   26.50246349433603   -0.07144561052434
In       24.92345178425062   28.19363877124475    7.00274879914853
In       28.97103007591642   27.95867465696988    7.67120392920845
In       27.17490631397339   31.04908022525433    6.13240458111476
P        26.92411867428421   29.37163039970562    7.87127533102952
P        30.22755324345450   27.28864326208708    5.67313852646878
In       25.38665045464586   26.83932483155906   10.32523067027193
In       28.69226061565432   26.70466708455323   12.44825824943922
In       27.31660891040618   30.03557168175871   11.85578718695498
P        27.60797623406825   27.97005037514511   10.57175336047847
P        30.50055483842174   26.32221702044186   10.77633620393899
In       23.61526920199733   26.38536838375064   16.11983866432760
In       26.63771443888742   27.55608003637812   17.34997907267599
P        25.82721879876209   26.88889733343478   15.14366559797997
In       24.13386272564385    5.47879209778805    2.29906475696711
P        21.87147495110598    6.18092261953805    2.81286321960951
P        26.11300242870954    6.92072472005348    2.10746972380049
In       22.71026293608709    6.56291518524977    6.73349760382803
In       19.23400301726989    5.85616921077162    7.36211570745315
P        21.05621558843251    7.01851237952858    8.56262220838383
P        24.07160307329168    7.34092272677426    8.69200475712750
P        23.21789724395466    4.18539695530174    6.66357802761974
In       23.21979661682611    5.04090710440786   12.52216016759642
In       19.63086192853031    5.45765064646825   11.83615265896856
P        21.31848226935396    6.39904093594162   13.36436813275123
P        25.34783870298839    6.16027766632803   13.05411942703805
P        23.26808082398783    4.65679740924500   10.13653240977392
In       23.74060994936050    7.70753150033988   15.83826713867973
In       20.20793800600405    5.22622000934070   16.67441483898461
P        21.34311525547941    7.35251661924327   16.34800520152355
P        26.04610515337375    8.67124872696841   16.04287041640446
In       21.94660484157155    8.64660254600890    2.85838802220876
In       26.14871625863707   12.46316136252432    1.54197707830121
In       24.93269905996678    8.96803934388993    1.31669375308516
In       23.19634944397671   11.61731033014583   -0.10983716429790
P        22.58694880969553    9.28777270898404    0.54535241342943
P        25.12952496476706   13.10262327020103   -0.61583629230083
P        27.42367692873399   13.91341330365443    3.11944518024973
P        25.14190940021631   10.76020111454357    3.04953131932828
In       21.30239803993773    9.42432171735338    7.96362961740934
In       26.70620590836825   11.83861307109538    6.32315632230866
In       24.59705091202621    9.45964699117404    7.52327493311244
In       23.09326260938857   12.46506850855368    6.13512711765571
P        22.72513944182646    9.99828568532055    5.98046173344192
P        25.13961577242890   13.16648657828000    4.90991828709874
P        27.33057497576639   13.51668546268282    8.04697316021262
P        26.82097670605424   10.28629532289298    8.28837872956608
In       21.93677250880252    8.80229962748110   13.11747277498504
In       26.91506679834659   11.32302652731489   11.43414641930049
In       25.35962332017199    8.41231963611726   12.02716249276357
In       23.25752036928432   11.09156610483092   11.09384549126056
P        24.04182298813082   10.15626076948374   13.24040914102639
P        25.13849210306465   12.17107650464180    9.87976624753789
P        27.72926237040256   13.01251277952731   13.05586414691334
P        27.24317189791027    9.57085200109882   13.20421912673184
In       21.63910126023608    8.03442865202845   18.71394262882900
In       27.03578333015047   11.95855448876746   17.60351794159861
In       25.56741362032093    8.57182932845734   18.50330170454532
In       23.46306930787897   10.86594737925492   16.86681504127791
P        23.42673278939185    9.70759091641004   19.03714535286019
P        25.56920697651385   11.41806337494585   15.65504804042948
P        29.17568499203902   12.28474084703009   16.35812530977076
P        27.48265970421316   10.03559191042619   19.10350014813840
In       25.97470029321796   15.41348748152229   -0.22012903540663
In       30.51874115903655   18.18019668777822    1.08875820027559
In       28.98005749646948   14.94687909743235    1.45126875662549
In       27.81502908288909   18.24494485991871   -0.97781048646894
P        28.36269870572439   15.83594642534408   -0.77649284622256
P        29.76563695873098   19.74497031928729   -0.68475997152860
P        31.58450002612488   19.39375657996180    2.99883884626758
P        29.08546198959181   17.05285860522400    2.79954489231384
In       25.19941710829202   15.33183617777532    6.18527616466066
In       30.25055496544980   18.17036056933452    6.36225878627183
In       28.56093606158705   15.01358605435760    6.44674931160932
In       27.01596801094052   18.66950640554321    5.87080016089020
P        27.09111118633921   16.34805788969351    4.90434965362705
P        29.03870872638899   19.38356161370825    4.53678456738516
P        31.45076490064818   19.05925935496944    8.35736442332481
P        28.99818403814078   16.85185212575621    8.07845576265228
In       25.22645294951264   14.39054962536365   11.01369613974694
In       30.48971037384530   17.95875963523644   11.58399086001810
In       28.70785122167755   14.70650920003188   11.48967632491896
In       27.02702236217426   17.78506031111345   11.21847662676561
P        27.02901980383326   15.66822605503565    9.88918531410931
P        28.86552638818968   18.97331163218896    9.96873407000398
P        31.66367795373161   18.62610380087816   13.67789651446276
P        29.34503740461733   16.43976412609576   13.18514471186450
In       25.14641011363372   13.88286508538860   15.60312525986865
In       30.31551532339518   17.99353362102844   16.79541554588528
In       28.97057307579399   14.75652305110172   16.21848572872093
In       26.81000986258164   17.36706416909777   16.00322797977803
P        27.03902885279826   15.24326603905980   14.70565972363639
P        28.67130132901132   18.76229892185185   15.08453806438640
P        31.28468486109339   19.68992414314976   18.33137806538121
P        29.36361072367609   16.18152109302302   18.20202098906328
In       29.83688038541212   21.47553563775908    1.09847553346168
In       33.07855925470845   22.54292529012871    1.02595984166537
In       32.47698010507013   21.27803642420563    4.37070261419974
In       31.22770279450349   24.83755604587789    2.88701700655622
P        30.60375920300716   22.47198483794964    3.25474835205329
P        31.46123443834702   24.30942780484768    0.49984897974982
P        34.05702915377248   22.81874667537426    3.26431330219222
In       29.07433054581724   21.48005464224372    5.90712400651563
In       33.53332561254175   23.59419855419753    6.92904862121117
In       31.80228176981038   21.39191024979030    9.15224707019594
In       30.01594431313963   24.12389507771269    7.55169751527146
P        29.49097780991157   21.81117635631914    8.32439743317058
P        32.15992823187604   24.87669867806373    8.55874776714142
P        35.65247771022825   24.75254970231707    7.20458563198880
P        34.11282068605215   21.60190639464360    8.29393418385516
In       28.65166557576175   20.99640249554913   11.43783761318919
In       34.48453461347115   23.99864038150090   13.03925011064899
In       32.06041795093317   20.94760204290895   12.86374459827648
In       30.40924901666100   23.73212038957341   12.84412078202633
P        29.71705334946610   21.44804647248477   13.62886641482520
P        32.34514125505017   24.98455874043949   13.85092047085009
P        34.92549170207401   24.29629060635037   10.68137925565338
P        34.26582513899623   21.64816215334193   13.80520556378650
In       27.98085423744284   20.68006356865180   16.55195882602203
In       32.07675725615383   24.55729762187702   17.79517349918174
In       31.12315801914916   21.54009580852273   16.66570623023768
In       28.70601356660852   24.44708206171062   17.99640024032607
P        29.22126639683250   22.04175937947264   18.21054470858827
P        30.26683018881945   24.85289728906769   16.09454739267763
P        33.04434733442982   23.05144074415760   16.05492955281749
In       32.19818867414329   26.83704696072795    7.05436334863266
In       32.31417265270333   26.90495658941790   12.30314158650649
In       30.33643236743895   27.31068581640137   15.96993188481845
In       28.34092597964070    7.16761984731138    1.09027905835331
P        28.10340284822689    9.60494658071601    1.11129891025287
P        33.30724396084592    9.69175138092012    3.57495051083842
In       29.98395824825647    5.62639625745145    6.95864530094897
In       26.02633134702267    6.22629788779482    7.64499474566973
P        26.07980216569167    6.61730802851073    5.26486512698591
P        28.32121291953067    6.58259660411572    8.49382068608418
P        31.23413797786687    7.37530943165660    5.82683469577068
In       31.06856753284111    5.26256363841411   11.53772196143583
In       27.08524415563692    4.73428595853050   12.04256702231138
P        27.69568693189856    3.80711368904376    9.89271929957063
P        29.10294846806379    5.89989052093172   12.85328199332738
P        31.66156145469064    7.22878231446072   10.24639255532469
In       30.32806032608495    5.37846533660547   16.38230287990885
In       26.77809855355059    6.28239380573295   16.20764037919982
P        28.97766715282727    7.24880675237703   15.54179629144792
In       27.32256747593010    9.59916978308109    3.46693534488614
In       32.15429680653786   13.19279353038155    2.17169761392628
In       31.12578620602704    9.59381155175752    2.51995459196672
In       29.23728373471124   12.47340604070217    4.06370721283730
P        29.59119977424922   10.02534279717523    4.41228565130997
P        31.31915012685021   13.82026670945546    4.44345606268787
P        32.56859516043377   15.12125568106685    0.69720974165257
P        30.47078807753639   11.61570181170822    1.29709704438991
In       28.56940944030012    8.78430079996520    7.36887646911782
In       32.97204502462516   12.79059665584048    7.64092317059375
In       31.93732613762820    9.24130597941854    7.27422647908352
In       29.48576450758389   12.29491842430436    8.52924491546056
P        30.18862761324909    9.92330878605134    8.89494250219610
P        31.45926080451362   13.53406055721649    9.47749636661742
P        33.62173388523139   14.68362538593339    6.19501942664734
P        31.60976987055734   11.40093819802309    6.10379613473272
In       28.86512782329280    8.19129240738795   11.90423242942608
In       33.27500922831620   12.36418374783165   12.60307483059514
In       32.33888565884273    8.89084076190225   11.92978017418821
In       29.81261639544267   11.62192074129891   13.21993854184681
P        30.46732687730658    9.22904433543162   13.50916740260150
P        31.63505649913384   12.84907033260949   14.42619855891147
P        33.81917421553034   14.41863000569551   11.34852658332963
P        31.97599680657740   11.10950982244531   10.88699363446876
In       28.92905149412976    8.69922070649734   17.58121311853776
In       33.45311100137091   11.74554281156344   17.42382600561535
In       32.67206513984681    8.33301612728038   16.93601162957143
In       30.31610373057243   11.60024324685311   18.46525523515539
P        31.12671430635255    9.24862101402893   18.60806416920204
P        32.30402684594875   12.78057705485184   19.35970613514264
P        33.59787328134981   14.00297035731403   16.41480273430640
P        32.16063292507236   10.42353138775722   15.76124478286830
In       31.27470577537281   16.19176743596351    3.68166621932607
In       34.68283677062128   15.65360309073123    1.82371340651598
In       33.78993437299895   18.99183956629747    1.89892886769816
P        33.60187326351515   17.08815430315541    3.53188969960115
P        36.10605586316122   19.82357615823111    2.00328027564774
P        36.12762777049751   17.01191107674686    0.41807873045345
In       31.25953323787049   15.82929984201780    8.55033079287936
In       36.88888407888061   17.73166346092332    5.02580711633216
In       35.35527880260977   15.36386386352926    7.78793585670898
In       33.62733431871817   18.43782476769633    7.32379938911784
P        33.59581983646813   16.60595962491255    9.02289967206807
P        34.86444541890175   19.11439431264722    5.26886384106717
P        37.37909340855649   16.53256020260839    7.06210215826049
In       31.49364280332276   15.20942502359548   13.59716594822004
In       36.92863387599198   17.86260053903406   10.50869044352492
In       35.48792131649029   15.05756737228687   13.04198875140802
In       33.85546591053466   17.98255773921359   12.70404566769903
P        33.68447688014070   16.14153562232773   14.36817944168078
P        34.68690798838690   18.90266153905016   10.55171050639912
P        37.14326094138457   16.83020931101269   12.68732875480036
In       31.49043214094780   15.06830414161286   18.86370859709560
In       36.20999596263525   18.94523010858314   15.85011802032816
In       35.17134788935150   15.01973352982766   17.98044811889936
In       33.36911055344205   18.35109191373164   18.36481561559322
P        33.62160139053339   16.16420753219152   19.48776083657510
P        33.89696160796690   19.59570542266160   16.28141102601380
In       36.34474305944109   21.97345775973370    3.09419836814860
In       35.88037775212146   20.87367548326223    6.71922515724003
P        38.03029993526371   20.33929403896112    7.70045429124215
In       35.51006029435471   20.88916515632869   11.79727951678124
P        37.77303618713943   21.70281239597248   11.48488248931013
In       34.15645831123183   21.58565907627375   17.74140863557818
