262
 energy: -18.576461169201 gnorm: 0.000793610281 xtb: 6.4.1 (afa7bdf)
P         6.97051022715219    6.13115679768695   14.29201516787862
P         4.02719776052459   11.03507597057543    4.99334840305120
In        4.37947852241466    9.61508198255437    9.88342710543930
In        4.72231177344508    6.49473031495508   13.38292194238421
In        3.06990885025170   10.10367737020083   13.23056385242861
P         3.55192673198358    8.20736383165806   14.68555610244875
P         3.73156686269071   11.53942100709530   11.29766211470787
P         5.61235154380773   11.37016198096420   14.64228146191957
P         5.35577431987366    7.99392908244930   11.48374905355008
In        3.09817632037842   10.92784504090394   17.27201449223047
P         1.59060428616071   11.55865484000155   19.09729136070412
P         5.24739534738911   10.20615484148160   18.23693677845938
In        3.29510225184081   13.11157738543717    6.03256136545300
P         4.18062033795919   13.48733688460510    8.25774003527173
P         5.98460887429655   16.42355761019817    8.19908427601875
P         4.39706522955665   14.87301901996175    4.68035690090444
In        1.49020808614335   12.43322542796968   10.86668790621729
In        3.56580521364498   15.90278305730311   10.91240305038499
In        5.11470865198580   12.98723648713691   12.80992812133994
In        1.90891532406490   14.93271065003354   14.45874687240869
P         4.31511871969351   14.64963599498356   14.47040768510849
P         2.03850429816916   16.66865463463720   12.69651548879927
P         6.08115642446489   17.44863049224945   14.08744609945401
P         5.66808948501083   14.58706671667171   10.90388464774158
In       -0.27673147287738   12.91678430642342   18.36246355121192
In        3.02602065211677   14.89415303732178   18.53415131801275
In        3.23373891517121   11.83382752629818   20.90295546328867
P         2.96529505369233   17.13798937308209   19.44409105054625
P         5.67233267946874   15.99283339567661   22.38720967921530
P         4.61235860618631   13.16923061295120   19.33158543002949
In        3.94921448911524   17.37772398385921    7.16902826416712
P         3.16544476195177   19.51058090303041    8.03274487877577
P         6.43420973336757   20.97153979688949    7.23097197497852
P         4.86690977832536   18.01649421543408    4.95412724208185
In       -0.23821085361836   16.88156724372068   11.82334481951680
In        1.98641174370002   19.91439843677636   11.49939104306895
In        3.71790048228778   18.13645175554984   13.86081083947755
In        1.00446816713588   18.74066778616180   15.88123255199817
P         3.22203332179816   17.80953569645245   16.27123268930970
P         1.17457540704777   20.07861273948010   13.82532590526239
P         4.80718160731031   20.83256496828642   15.49796724702837
P         4.40273811906069   19.65232996498834   11.98049754285064
In        4.17911471049879   20.82960215316043   19.02052029411292
In        4.96158558336077   17.67405949004694   20.76452308139716
P         5.82334567436702   19.01631806283721   18.83154281262829
In        2.98487164564911   21.74949559357197   14.14074804171594
P         3.97120417144233   22.85410821730107   12.18128245311109
P        10.32126302571772    7.57816160650745    8.17104203201032
In       10.69140567560782    4.32126341763442   10.07961188895276
In        8.33792293125496    4.62012449440600   12.94705408028450
P         9.38232102440998    6.08752081121460   11.21299104308794
P        10.27333154010149    6.00942174299125   15.08716444682909
P        11.00508356461694    2.84846432228262   11.98291297513853
In        8.17459954050780    4.03657154755809   17.42141854014877
P         7.80568880815754    6.42338896404600   17.74396425604073
In        9.35828825822049   10.45427261361240    2.47047496738212
In        9.00476023898974    8.65527089201388    6.43606907213828
In        6.35018302539707   10.26651231336999    4.92290619467358
P         7.20434194671159   10.14102537176637    7.22489174347513
P         7.63234327621942   11.87692143313577    3.51238691793234
P        10.22318615352212   11.76933362029910    7.26798333620037
P        10.27112539054192    9.27436498640350    4.40492761054395
In        7.19476701626154    6.82107676885202   10.31591924348197
In        9.40520321937777    9.79457210306761   10.85402892131576
In       10.22206802310880    7.50525343320502   13.11002233892474
In        6.34889641496650    9.41022788142140   13.30985612160809
P         8.58890972536630    8.96148376863272   14.24899865851236
P         7.23831049823691   10.82860584696709   11.45283679394095
P         9.93779308584490   11.87411855840234   15.00627168744034
P        11.60428505415926    9.23850643866999   11.86677463027570
In        5.91956502683498    7.96756569510138   17.48194311320218
In        9.12261604640577    9.71667694950897   17.72757756305743
In        8.68241430325543    6.82067881164628   20.02388444017511
In        6.73833996920445   10.88846577128020   20.08891882821659
P         8.22809436450953   11.94137940980147   18.36564627933778
P        10.10584672674834   10.61310862519283   21.00443968061672
P        10.41728097698177    7.74057009804456   18.48903606490158
In        5.84326191589798   13.55707307579507    3.16624743376779
In        9.22337346140974   14.64675604707461    2.45117950042523
In        8.96053034798935   12.80263618533676    5.41935994951507
In        6.45533658231234   15.45701268627539    5.96644629375050
P         6.79878552182948   13.09062190585900    6.60437343005593
P         7.92214842017144   16.05894308622360    4.02017717499964
P        11.12017578946577   15.07693042609200    7.21730785495870
P        10.84734790584313   13.52668392403357    3.94936463378850
In        6.94548523831585   12.71393258956358    9.88268824558689
In        9.03933201790775   15.53768626571519    9.95221557114334
In        8.28621506690496   12.29959107372969   13.22009222093922
In        7.09400477946595   15.78809972645978   12.57811543943753
P         7.42961539151712   14.25138964447348   14.49866345214037
P         8.17755467763818   17.55478737929627   11.11931479724522
P         9.39564118801570   16.76801602591744   14.44545089932060
P         9.47705709505258   13.68178702214632   11.52393415741230
In        6.24677085790794   13.12649238692792   17.45413801932942
In        9.34210836257670   14.83954498593002   17.38008456577448
In        9.62664482891098   12.90438277670360   20.20997962581986
In        6.34613184305574   14.19176862524942   20.84713864691668
P         8.18366469243911   13.23778044916446   22.19654436040280
P         7.66830165574643   15.41985876142457   19.11490163616449
P        10.84566510761058   15.30752572182443   22.55415822609207
P        11.30167674012970   14.12220385648113   18.73072275621887
In        5.95754337625816   17.11787736892215    2.92630297863499
In        9.61780575475447   18.46186766368750    2.07936793381844
In        9.92196750152549   16.40034771334780    5.50650077194800
In        6.92916906325059   18.84638635042100    6.10716151723823
P         8.85242608909906   17.79595914855440    7.24623599846826
P         8.24774827430470   19.13125959993623    4.00306474459477
P         9.64647080904204   20.74391389764064    6.28208413003312
P        11.24235340066303   17.56975014656383    3.72608712293675
In        6.18707159088183   18.85767828078422   10.46720422030820
In        9.52580713180959   20.95077187122865    9.95719299223127
In        9.21759192959036   18.79754079990639   13.03202218201262
In        6.18746865670860   20.64686635107462   13.44287707979429
P         7.91525315354524   19.69474848024785   14.95984929976484
P         7.75373422845232   21.43891710060913   11.61573208522057
P        10.60158369143087   21.27610331854622   15.38199534739656
P        11.00677229058006   19.93929988175024   11.64975345135816
In        6.23092240175866   16.85326222310142   17.70059641753449
In        9.46940932257259   18.14668088526312   17.66564528036359
In        9.17159286786675   16.19077412895181   20.97075536760838
In        7.76622754379076   19.78357979491805   20.20477890796480
P         8.33036682863076   18.25280181116741   22.02559948619729
P         9.01395395350419   20.52139928975776   18.17793570108055
P        10.90128528204324   16.98788033843924   19.35327546129922
In        8.57413483254045   21.56976849272715    4.24320869677217
In        5.87552684337546   22.76410851180084   10.67124572503026
In        9.58112320920064   24.83716178333854   10.90232575577962
In        9.22114174757819   22.18826347131064   13.53198374575817
P         7.66769510942877   23.95623418379706   14.20421919946095
P        11.02160817171124   23.41810458407218   12.28440646077607
In        7.71431967712719   22.53637360977113   17.70986349531077
P        14.20049262509676    5.72717639248451    7.47594263715406
In       14.61790621656718    4.06859310045051   11.68742642878213
In       11.57065363716329    4.23876945312677   13.94793287034408
P        13.28340429678862    3.35899566521712   15.45967028727364
P        12.93680802381181    5.69064680623045   12.41529177574366
P        15.14417074908474    6.37262388319957   15.54947327479110
P        14.28203983832327    6.46104629714337   19.37383153175911
In       15.23970243301639    9.54679893642873    2.98873487297623
In       14.28657853029084    7.93059489489470    6.45021889248104
In       11.83667007321835   10.55342686740370    5.85074716832712
P        12.98403455118524    9.51918467798408    7.79305477065945
P        13.77015771729625   11.02875370788418    4.31853604180906
P        16.32605652384124   10.07538902731632    8.23294307035617
P        16.17160270935571    8.31888659325746    4.89185669964036
In       12.76117188581566    7.41473548449654   10.64730552771069
In       14.44854478451159   10.99826593247993   11.27004475283852
In       13.31122386619353    7.37191442011804   14.23980280500033
In       11.79399909519696   10.64515155458269   13.93664782268799
P        12.01542511452245    8.89884602506843   15.68320750041258
P        12.71990815280988   12.39346203294486   12.38887823449260
P        15.13673031046175   11.32109509740684   15.12124980399423
P        14.48154436909728    9.05096849488048   12.80951690611003
In       12.20504545616592    6.05349256868060   18.19523666505333
In       15.39859980919158    9.03201820142570   17.64763024657078
In       15.19383099589821    8.01971967705450   21.02981692388207
In       11.71344908789199    8.87201162683287   20.35201357102024
P        13.19727808140646    8.65876558651071   22.32921387311603
P        13.25303653144023    9.79374488589785   18.61161553898734
P        15.89192819695610   11.10849989668251   22.51387424701658
P        16.96900620999429    9.06901260916571   19.56398248413397
In       12.51559236138723   12.29800540280337    2.59408065433393
In       15.61323859647715   13.58394363956030    2.89195365883807
In       15.40540354009501   11.19512065134480    6.22865548985534
In       12.61501033283550   13.83327105207057    5.70367198100149
P        13.89996814721734   12.69894287061997    7.47829263934315
P        13.99956921063673   15.08012696585331    4.03962342424816
P        15.05182963849447   15.85888322563056    7.49093105063928
P        16.90160069390138   12.45412986739483    4.67803497062092
In       11.31549415625964   12.49708758581089   10.35576237764723
In       14.15421651540784   14.41070151400219   10.44876801012164
In       14.18619310458129   13.37988790428448   14.15031909996199
In       10.58823849998968   14.83926133929138   13.46242813440692
P        12.23429643712539   14.41847165730804   15.26992948737909
P        12.23701146220549   15.39640075503797   11.67126505940945
P        15.43284547112108   16.17962160999001   15.18859074458944
P        15.73694340283110   14.17669333514959   12.34254351037147
In       12.06592638162724   11.87499834732922   18.01648070680685
In       14.87631994809773   13.97816182552917   17.80741799654941
In       14.39695917773955   10.96009533447232   20.53991300145190
In       12.50850120398700   14.60145030501991   20.87432284366766
P        12.72320657602279   12.30041039703417   21.72328141669801
P        14.34494165783666   15.66445080900367   19.52612917009278
P        15.48117730859929   14.63345226542486   22.29841729593577
P        15.90027330915278   11.97041850810641   18.84466146755094
In       12.74189439859965   16.25595426389297    2.26470972520431
In       13.94831229261906   17.04484375811616    5.63974832627647
In       11.56958231297100   19.48694836281344    5.33632124476412
P        12.40840044793916   18.15154682185519    7.24387564729561
P        12.36469686389599   21.40558865141502    3.99811416436963
P        13.03049514086618   21.38738197904348    7.68525369468839
P        14.70921179538396   18.94551944719431    4.26332733978086
In       11.58674590839755   17.65197883937011   10.86704523408116
In       14.46392822750908   19.43644562718652   10.70940354780154
In       13.73929560100527   16.47842930849047   13.39546804142465
In       12.24623618993316   20.37304897504645   13.77929523513986
P        12.27372957943660   18.04316557063837   14.58853885020857
P        14.18193965977694   21.20164535344784   12.41210858597333
P        15.32460012244249   19.29461126481441   15.03298835201044
P        15.21735179506005   17.23027599793496   11.54761363451930
In       13.02915733376989   17.20063623905730   18.09965204842408
In       14.46441205280194   20.38704305347384   18.94118284404710
In       14.93176762548711   16.96155906423848   21.59544823985714
In       11.13058385099934   19.22238255477835   20.47354345514612
P        12.73853537071653   18.05090649173183   21.92150518296992
P        12.03466001903451   20.55930264877576   18.58512975325126
P        15.83400066951453   18.65065794225990   19.98996161526178
In       12.12240479887530   22.87047863927076    5.95339611323438
P        10.25891869504197   24.07448445009869    6.95253691874951
In       13.13865868274602   22.99680427455086   11.07877890672961
In       15.32718416918876   21.71834750737675   14.58651601940417
In       11.98438884507472   24.39861323096654   14.34819403426894
P        13.52205577690867   23.03248926378117   15.62641238334241
P        16.96059337681659   22.83073425698460   13.10738446267926
In       11.60154830011420   22.91142942779955   19.10720158226035
In       17.21818725018651    5.76290463230801   14.47884111628998
P        18.07239076084114    7.10458417599776   12.60277383845179
In       17.66163049374381    8.50998408556952    6.87794946115133
P        17.81878124712596    6.38313794391817    8.08646975206219
P        19.52031111131860    9.97442348881605    6.09474630395015
In       16.00645618675742    7.67733707839015   11.37845085821925
In       19.38194198896856    9.19118721202546   10.47277541666760
In       19.97708879020537    8.19303218701821   13.75792396656797
In       16.57871221389626    9.55743861769652   14.12731315023973
P        18.53222272210575    9.02675066172753   15.55954168393097
P        17.87569496796075   10.27218316564378   12.10994627565708
P        21.43078448259374   11.42433107321789   15.19915277832523
P        21.33377156685675    9.15556732435606   11.94129666317048
In       18.34941519296475    7.03231607271074   19.46697772955766
In       21.33477829215139   10.26938242898193   19.28353149614655
In       17.93444274296494   10.63243553034141   21.24465508156705
P        19.55973265679362   11.84801725678520   19.82376437799954
In       18.74354534588499   10.97172442210365    4.00040159424335
In       19.40210835552633   11.94035891596387    7.53800157986831
In       16.57588942397560   14.54175937331262    6.05359913105734
P        17.54392246895079   13.40710788018416    8.02952353854229
P        17.12416270346263   16.29467511633599    4.39123703115660
P        19.49609684034112   16.40336727063940    7.30807156751490
In       17.40712859832054   12.61398353379280   11.36906821637595
In       20.52936334194111   14.60825373473500   10.89768373824798
In       19.63799678989017   11.46756494024021   13.50046121164754
In       17.36032607895022   15.21851231926289   13.94989111807822
P        18.03348434607316   12.94974251522591   14.66488505136464
P        18.85651247473786   15.98942105831617   12.08835317253014
P        21.04636404701945   14.68542583118002   14.51548545493555
P        20.82662666855511   12.26366354892601   11.46956904184643
In       18.12681577383320   11.61745617868045   17.83776147445759
In       20.17895650091829   14.99679362677414   18.21367033976754
In       16.81919259775735   13.64249079526562   20.48663863114982
P        17.82382341033703   15.14860231002564   18.79359417393615
In       17.77305205852018   17.74758190704528    6.25655735874199
In       14.76163904712396   20.39195087087316    6.24850553366465
P        16.21277993037134   19.00146273792491    7.66130733856972
In       17.15529784284513   16.30621644651745   10.32734023749470
In       19.92501253304832   18.83319845041271   10.48087294753019
In       20.45336027224073   16.94167315334714   13.79173830639425
In       16.72413011983383   18.42440283707669   13.19115595188230
P        18.61580961493885   18.24834498053815   14.77711011795285
P        17.72735610813489   19.60163934476006   11.24709510983952
P        21.67699317687955   18.03300653320111   11.94665327677286
In       16.99260039979910   17.38714941847315   18.24812891364082
In       17.13561856140478   21.95121799372059   10.85581991508419
