92
 energy: -6.439940653550 gnorm: 0.000127078013 xtb: 6.4.1 (afa7bdf)
In        2.72603243222837    3.48178185476740   10.83944475582183
In        3.48589349098368    7.44832924447848   10.12257413371840
In        2.91186708893610    5.06939039441693    6.79812689704007
P         2.42282891190777    3.34088661336630    8.42073758376873
P         3.68026499717775    7.23026232611159    7.66963415578803
P         4.28204422700182    5.38021111866703   11.26272046838479
P         3.83368486619548    1.46721794844412   11.74448953061403
In        1.98001852529755   -0.14556610246052   14.74092004415064
In        2.73567974921525    2.81955835590276   16.88357063691923
In        2.58758927740977    6.49801356478515   16.25244344530362
In        1.39186042314909    4.04120490143220   13.99789704204735
P         2.88679569893419    2.11921449844191   14.49331779222635
P         2.82748247194669    6.06209557337391   13.81073497798933
P         4.20870733452203    4.81705191725666   17.14840099006347
P         4.51650250114550    1.23522945572666   17.52294895019387
In        2.74755228853028   -0.52004008151326   20.33927384598795
In        3.93965917712307    2.20132465582326   22.72920883119614
In        4.09325047084217    5.68479168065131   22.70151412629749
In        1.56769349502352    3.71152728676908   20.31670922441323
P         3.18670555427751    1.86905792171030   20.38966998161523
P         2.87915738316360    5.77499136261551   20.53887924360575
P         5.77086418132806    3.84772013109071   22.46774701712148
P         5.55857706265514    0.35736992922149   22.64764562061710
In        4.00714443754174    9.28805616779566    6.37156944423562
In        3.31654269864563   10.97007337564590   10.12408174337714
In        4.60745269902985   15.32210876554339   10.27776819932241
In        3.18672321425392   13.51182851393978    6.99388384828446
P         3.17666480629038   11.18610565298632    7.67321667399292
P         4.75310575144497   12.93113183890105   10.65429288305821
P         5.01463741122494    9.29934411495586   10.82701379399938
In        1.26941744084313    7.84920887885204   13.08861708932874
In        2.59456109880958   10.13505812720125   16.16600585344202
In        2.96257592215347   14.35808943756990   15.74894757617534
In        1.34712224574297   12.05033660599071   13.12942075960638
P         2.43580888956621    9.92195239753538   13.70518953210313
P         2.67236993257162   14.07071042620834   13.35461858415350
P         3.88672411489977   12.22402453824444   16.53472957317753
P         4.12807259267178    8.34237474033607   16.96541451052619
In        1.79814219512769    7.95990863882721   20.24478756754630
In        4.76077667602135    9.54499613126501   23.10472741589106
In        5.09478779685606   13.29182509382128   23.33895942474271
In        1.70034221491736   11.87382578802929   21.22025575868221
P         2.75126627664911    9.70442502812106   21.67818766396887
P         2.99091465316132   13.67112149497209   22.20374051683501
P         6.29482725668944   11.36803195259961   22.34186240182391
P         5.79185466352762    7.43233667942712   22.25716017917059
In        4.72880307909474    0.73815350098704    9.60429928477264
In        8.08054669410143    2.18619559963282   10.53771808155849
In        8.32315664350484    5.89700358292097   10.51914877567276
In        5.47048232043646    4.70525386247395    9.18601653885091
P         6.32754174852788    2.40880398032183    8.81408948412840
P         7.16362716045345    6.32707503971298    8.38441048758071
P         7.36372542525858    4.09749453046137   11.93576332516848
P         7.79078578966828    0.19231578172143   11.90343265212978
In        5.58237782754882    0.56948842156144   15.44396759188566
In        8.34537578105958    2.67574994068448   15.25895852313479
In        8.02297059842831    6.38179773102366   15.31456468059015
In        5.20917613619568    4.24898894166985   14.94273045302472
P         6.32746736713069    2.28373605897902   13.82881815813386
P         6.23583796302586    6.09790115860611   13.58138138244989
P         7.64868863622990    4.44626739256914   16.85230772936390
P         8.82243137986081    0.76327597324208   16.69642986802382
In        6.64565050414016    0.67449015789194   20.50878528603275
In        8.97177279533331    3.53703297666004   20.07886245449901
In        8.42596375066824    7.12371843683446   20.00018547597650
In        5.73159261993492    4.27320275020919   20.04500522736668
P         7.05982657843645    2.49131749183630   18.88076899769058
P         6.47925327626745    6.24130894122100   18.66511631058270
P         8.46926855821831    5.31863480961971   21.67455853464459
In        6.38305951660300    8.62784548729811    8.87257773023963
In        8.85104747826278    9.76531088311341   10.70776130595430
In        8.92071151976460   13.51578604505557   10.46339491474572
In        6.18731061761462   12.18804663716970    8.75941390734105
P         7.98400943721625   10.48616111267429    8.50687731721182
P         7.70282210091006   14.10728948137062    8.45001573307184
P         7.80023320399086   11.75945349894288   11.74012619324698
P         7.68954490580342    7.89479768697865   11.85295371742027
In        5.12610903493275    8.08761191016596   14.68496085587274
In        7.74061897357912   10.28558583523379   15.44347784733455
In        7.41049245279213   14.25122010022607   15.49127126980412
In        4.96801541988307   11.82548922834411   14.34028535968142
P         6.31189668547764    9.91402505356119   13.42135102544772
P         6.13055977060811   13.82047583145246   13.47814404773012
P         7.00256540805683   12.23210732186192   16.81183232026820
P         7.32218063414679    8.24778452600760   16.81593581885305
In        5.30670926262913    8.07324464247092   19.92771340489628
In        8.15374395210177   11.12085989878301   19.70368977332520
In        5.04480991345279   11.66638809767883   20.19774062413898
P         6.14518206246909   10.06064615247528   18.59947467298759
P         5.15916183944311   13.99033914027945   19.47615974620336
P         8.32237041288746   13.24111478103527   20.89517539982780
P         7.86474116622411    9.19915064713118   21.24388742287135
