188
 energy: -13.591042954860 gnorm: 0.000112632174 xtb: 6.4.1 (afa7bdf)
In       10.98068898373273   11.26923035936998    2.48119969458457
P         9.42098902115208   12.79321761642705    3.62471705076149
P        12.71126356189031   12.55935673239890    3.70540142998388
P        11.54971152722135    9.29929077174785    3.86293045271275
In       11.78640509982666   11.98525811585676    7.39609323077500
In        9.91179546641579    8.90172916402676    7.42243205957663
In        8.16675269513183   12.02718246568065    7.16464186833488
P         9.56681880420594   10.62959970365203    5.69239160123634
P         9.92658080969625   13.42903083982812    8.19503999608635
P        13.50775945749112   13.41592121592900    8.50792649762611
P        11.79949305792704    9.86859954965574    8.71066357516778
In       11.53772622732753   12.24037770849496   13.61713644555490
In        9.82403412211606    9.65237205965396   12.27982414710821
In        8.32924511573260   12.69627127903669   11.91363005847393
P         9.85607509892290   11.36989125069769   10.51939638805033
P         9.92013748958440   14.10056514611600   13.19692156939147
P        13.54748289286269   13.71499717975617   13.53209090278193
P        11.68838235104411    9.75483863762875   13.91994462509836
In       10.42533773910066   12.31368656197062   17.80609928922424
In        7.07776957514368   11.96702105411191   15.83523820009698
P         9.09047522485056   13.32036712274019   15.97595474542960
P        12.72215305058850   13.19407501569573   17.61664344995591
P        10.36112002295116   10.08718618558883   16.77793543502890
In        9.60144525129095   14.60354701418389    2.00836648207501
In       15.93675990624386   16.72588981056024    1.04017456521069
In       13.52068000596424   13.82952100271091    1.73627725621684
In       12.43571587530123   16.25172507117494   -0.75021718033617
P        11.47021734460263   14.34978088259821    0.45108568654864
P        14.27724548581023   17.83012895099796   -0.43395094053178
P        16.73314869413123   18.58664253218651    2.49170936725357
P        14.45515340396709   15.85327243801468    2.85331533126259
In       10.41738122846937   15.06170549110489    6.40705567567087
In       16.02777826447670   17.48809496371388    5.99702613712958
In       14.10888942175892   14.49365213562502    6.32863791300474
In       12.35031439290531   17.81155971060335    5.59754537466857
P        12.32567804950117   15.42983526945432    4.86135620253849
P        14.39757113057916   18.43761263031925    4.34553836713277
P        17.06622230016257   18.48732266316659    8.04261355294653
P        14.53647532446503   16.50091610172060    7.75549146586319
In       10.56532122311490   15.12856254192965   11.05308736167755
In       15.84985698780051   17.77015803074315   11.10030522600822
In       13.92028025407335   14.83774237427014   11.32263804879976
In       12.12052680689821   18.28536514972078   10.18513725398633
P        12.42714180980261   15.88479016776788    9.59012015449179
P        14.40452013172167   18.86102398083036    9.36347866486552
P        17.07271076479077   18.57091403649178   13.13118103295453
P        14.40670863125868   16.73239522946728   12.87566789678991
In       10.32432691532996   15.45103555558522   16.25164874875750
In       16.15333771808174   17.75668201056133   16.06808829428677
In       13.69481855856375   15.27423336555623   16.68154167046441
In       12.16730428171637   18.51526487859220   15.33477234854800
P        12.25295067925923   16.08792976168084   14.80338806123878
P        14.50365326068634   18.98750908490655   14.61972468447726
P        18.45597052558494   18.73782616491115   16.01526360967085
P        15.22837925668690   16.64445683294759   18.07215861759429
In       13.47021246746463   19.68636545210271    0.94247479191293
In       17.70631813682654   24.10596273291424    3.16767037388387
In       16.72989972766722   21.03441902995437    2.13298113250139
In       13.87588062350803   23.89680734339963    2.61198179515093
P        14.50382067540961   21.85763106766075    1.42125432134138
P        15.54909247849679   24.93546977875778    4.03779891977313
P        19.76819584432509   25.14737812857308    4.04018059479718
P        18.01298064556136   21.81715641057705    4.13182428893356
In       14.42016798712928   20.74871569960839    5.26040041419187
In       18.05547734169695   23.93954033528365    8.14530905638900
In       16.69908346593457   20.92332235066779    7.71018374142788
In       14.37217159257012   23.59649249555135    7.67959167896151
P        15.93130377727568   22.59745064127061    6.01887972847373
P        15.95621674919310   24.85134752705492    9.12930796839711
P        20.07073726915980   25.19237312729377    8.88669284008250
P        18.33565149519638   21.78427932099929    9.37591607157928
In       14.42913472841674   21.09293510109112   10.48196292000079
In       18.69296253996087   23.88145498281918   13.05644852737937
In       16.80753494472185   21.03799159522228   12.85847069715369
In       14.62130714893101   23.79892052488113   12.71631594519972
P        16.21928963276377   22.73576228550263   11.12319030042702
P        16.52241770630943   24.52543532113683   14.14249249191501
P        20.62199676500947   25.37438158803034   13.59694890967608
P        18.82659803490349   21.64653554093877   14.17083322732935
In       14.61882497821124   21.12909239887878   15.88560034512320
In       20.26441974737403   22.84171610118985   17.04675460610160
In       17.50281280110099   20.45228941545255   17.58616260246419
In       17.29968861448122   24.06480012785193   17.84433208101725
P        16.78067234278702   22.34200845365140   16.12399328733625
P        18.94704881850225   24.77289676445438   16.11095603083219
P        20.75644572749765   24.38149304511667   18.91508633897040
P        19.36961448433418   21.42766265887723   18.88737104699574
In       15.88304031255419   26.72205841375109    7.50095385294921
In       19.41079594962882   27.05466740932414    7.38672247568754
P        17.66523793790125   26.13920578162337    5.89976871411286
In       16.46496099150937   26.54918645914434   12.68785649833298
In       19.89081012988764   27.23960163610393   12.16987355915178
P        18.09615442997264   26.14352427143140   10.88278347745289
In       19.34480019255165   27.05028314043026   16.90639518828728
P        18.81044305070373    8.39315574801594    3.13207244809984
In       13.38257860130120    5.23989137788965    6.99280702162208
P        12.52427356317473    7.08702805768191    5.64368501986971
P        15.64941984038543    6.05474613738270    7.29890063958469
In       13.15519600614275    5.71806913619957   11.82014269863004
P        12.30796881314719    7.53617806706730   10.43446601844341
P        15.42090074553940    6.43465361827308   11.29949996079933
In       13.13533191717450    8.24861327519097    2.32172813267794
In       18.68003125647918   11.82526382630048    3.45410035879636
In       16.93720359533892    9.37689639103748    1.93383897706621
In       14.81354666176732   11.24537673511335    3.85358763288278
P        15.16801699317068    8.79964484658130    3.57444736270793
P        16.72283418041169   12.52372520673574    4.84568054720137
P        20.90066812483406   12.85001127517896    3.78151802963018
P        17.23520502015267   11.77292797218749    1.46841199083475
In       13.47727132653272    8.68184741388217    7.26996192269580
In       18.37355126056531   11.68978081061898    7.70267728246824
In       17.00122484906774    8.06328068863533    7.66041358820604
In       15.09853727716026   11.57835547291214    8.04245188958584
P        15.23497918492872    9.26037702194327    8.94346994458356
P        16.85237450125577   12.83866097705347    9.33447466201605
P        18.84811875048977   13.71698176316355    6.33336980353300
P        17.10556141892124   10.09327510555676    6.26100403929414
In       13.16980240588992    9.27345017238640   11.95695292932599
In       18.40703387737200   11.83848144129160   12.34562481214313
In       16.90022675488495    8.24574150523488   12.02791368308090
In       15.04465324814648   11.93193273785355   12.64190044508478
P        15.23869486372114    9.53997691082629   13.34110943771893
P        16.88755097834737   12.89345552059580   14.03315474415912
P        18.88959478594835   13.86524620928806   10.99237644804683
P        17.09014276835665   10.38936501010505   10.79854337935628
In       12.37587178674441    9.22738150883810   17.85516172208617
In       18.37587222897592   11.76475582278358   16.93959740682482
In       15.99476194543736    9.01517212704649   17.08090803692438
In       14.42567352262483   11.87355279829702   16.39206151853897
P        13.85785614562281    9.47861922044371   15.88397282869100
P        16.24819618298282   12.50035619757923   17.95271580471670
P        18.95227341642818   13.84567327397779   15.73048490342367
P        17.49947587728437   10.02548106226096   15.43186641960576
In       16.55042057031423   14.75138181424896    3.70693396579226
In       22.53583928563404   18.25572985840411    2.50536777856950
In       20.15992335629607   14.64354832094587    2.27495584429483
In       19.06372080313667   17.75306703736888    2.50487835167392
P        18.79924302271968   15.79046295105323    4.01247534041810
P        20.67906406319819   18.91331087484010    4.01486786349162
P        22.83882774881446   20.22650494000816    1.07691584003010
P        21.76959211550692   16.24276308964878    1.33253049834704
In       16.61895362887115   15.19046565443490    8.45692830913909
In       22.73953471178167   18.26277759201435    7.12611238493552
In       20.71551905062773   14.78172203886395    7.55441927710456
In       19.33438716112176   17.84572365703498    7.24099670803786
P        18.97038777873792   15.97435087063500    8.85335211166485
P        21.01039156877404   18.87456931090675    8.79918767788266
P        22.48609566378612   20.29181732672324    5.70726914638548
P        21.90847706547376   16.24251306503340    5.97879398087167
In       16.45799848616263   15.29355906130820   13.39521492611411
In       22.68558658545191   18.32397184831552   12.08680400226133
In       20.72354488172859   14.80348791713013   12.34964998876831
In       19.18862658029794   17.85638229456331   12.00864577453044
P        18.88196068979308   15.93302151831758   13.58707254447554
P        20.81392036535140   18.84428389085109   13.65612047618189
P        22.94607695648391   20.23361670760255   10.53910704768317
P        21.96756889703586   16.31365988486692   10.86629225087576
In       16.94757821218824   14.86600949762879   18.23723347259544
In       22.82211946686965   17.82749816122074   16.71020174343487
In       20.76621447433181   14.84046423438982   17.09519478744074
In       19.68492233433101   18.08446169958083   18.08955263771546
P        19.20064910459596   15.74315234686667   18.77810146080400
P        21.98059617708440   18.57542211143942   18.90281519705110
P        22.68275656584563   20.00325681239703   15.52618573572254
P        21.00183418007152   16.69785067677669   15.46633656930611
In       20.07567298064440   21.08289210805299    2.93985672965404
In       23.94135469747053   21.59648084709236    2.78217108026234
In       21.43494933444967   24.39439864176678    2.40186862182002
P        21.91055326064807   22.48560290690663    3.89229592337863
P        25.33772916614004   23.57989622975449    2.75025576459385
In       20.22243440671436   21.06523058710911    7.91496115113064
In       24.46087017828957   26.24216556629423    6.61765300968351
In       23.99388539872205   21.64001984195787    7.15005280086333
In       21.55204878812133   24.23935161458317    7.11292912927448
P        22.18608422403757   22.40394857042271    8.65796197412433
P        22.33417621556411   25.91196517895328    5.47819911826848
P        24.95608068410161   23.89238902904121    6.98416919535188
In       20.51262145312124   21.01454699452002   12.43953938042555
In       24.87245773599404   26.13883183156867   11.20067273769799
In       24.34186983005678   21.59045911189633   12.06908091543898
In       22.02078471709148   24.21716313695334   11.89211945796096
P        22.39729252290790   22.30300010397601   13.43136217477233
P        22.68301698850507   25.85855260610044   10.16452198325588
P        25.30242634932577   23.75371808654386   11.41680514933893
In       21.70388521221473   20.94607798584058   19.54745548052882
In       24.33378898452866   21.14927523891869   16.90166109178653
In       22.95686325070291   24.84672412887897   17.97352747018068
P        23.39148314147369   22.53394506258962   18.68239098816527
