38
 energy: -2.457338677341 gnorm: 0.000713748094 xtb: 6.4.1 (afa7bdf)
P         3.09527125468250    6.10864659932066    2.58941922573100
P         4.17342248633006    5.04380083090138    5.94477536540319
In        0.71224580534872    6.31561219972644    2.38134382495765
In        2.91957615785029    9.46338162866873    2.21066866412011
In        3.99550066877180    7.13458793827613    4.65407361146299
In        0.69517374475781    8.85611811252160    6.01694970963019
P         3.04923746755807    8.49415483033085    6.48506546409684
P         1.19306673182989   10.03251921151710    3.89936883795138
P         4.58885071249779   11.39637895262798    6.81769889320643
P         5.09335336747450    8.96314646770545    3.30802007594172
In       -0.40848614147598   11.58692723016500    2.91014184023100
In        2.78900250951872   14.26537713943383    2.40709603113394
In        2.84187554848871   11.53591316039573    5.06570192449039
In        0.51063413327316   15.18018937839845    5.26486407891976
P         1.14943998635488   13.00324900088066    6.09790007547723
P         2.07170257600806   16.22139567745722    3.69090061652081
P         4.18024486848140   14.56193221306868    6.07276559946929
P         4.14227856950219   12.30595322359333    3.06961342717610
In        3.83878915377803   16.82285583744916    5.27679518565919
P         6.33080554654900    5.77712674501752    2.85714887902615
In        6.34778384428484    7.81269334890300    1.51761176156503
In        9.52761137074479    9.84317098147636    2.37488943629065
In        7.30329367273434    6.77133782458187    4.89051621284662
In        6.09016104250885   10.18355880527109    5.24949041403075
P         6.36559987355857    8.17330452356788    6.67692367489344
P         7.67228900403261   11.05322359412503    3.48984496276991
P         9.70715984952132    9.86511052112234    6.81750791448536
P         9.16465492095420    7.98727788394936    3.88116691563097
In        6.07591314530949   11.62467479144748    1.68149582469276
In        9.23351581594829   13.82926685327514    2.15224032249401
In        9.15147912692151   11.77707460179407    5.39670165254962
In        5.80503911102264   13.44634989367885    4.59008172828529
P         7.38846199809817   13.12530288965095    6.46178043303780
P         7.09317859567451   14.80123686125431    2.91796925089855
P         9.63570263290135   15.96637894731792    6.24406789965291
P        10.68644037327595   13.00188944333656    3.90346798036082
In        5.97077276601602   15.71643143881647    0.95489277024265
In        7.88023020891917   16.36946291894447    4.66229951466025
