142
 energy: -9.491699728905 gnorm: 0.000457908738 xtb: 6.4.1 (afa7bdf)
P         3.45923289331267    6.94431552087265    8.35993062968607
In        2.78538140109500    4.29494160993094   10.75832023132908
P         1.91844525240502    6.47018604247418   11.49956922169288
P         4.42387917356685    5.09925455444022   13.80508913675619
P         4.75191777957113    2.94651409763588   11.21791458974407
In        2.69803965181692    8.82379965922485    7.02092980128096
P         0.92273891038152    9.82277056061953    8.35198020324935
P         4.16620715301747   11.89858293089012    7.83703228583348
P         4.35263506912423    9.34977525462101    5.28416762176865
In        0.57541368681176    6.11525941865138   13.49348691476997
In        3.74250293888162   10.01563156296625   10.79020090653516
In        3.97789036090312    7.25382597190221   12.67844009376032
In        2.26120976525481    9.24677599936831   15.15143946693582
P         4.50030235647659    8.28743293205259   14.87660280933242
P         2.46014084850640   10.27376271802829   12.89800092986964
P         6.73415198965585   10.55690459380196   14.15699160029467
P         5.26227915365009    8.04750541604618   10.64980463865054
In        2.22521358276189    7.80532362567623   18.65929753928882
P         2.99940283359501   10.11807133350065   19.04688521777192
P         4.06167342989202    6.23043846003836   19.06191154163584
In        2.57383091925035   12.11935222001861    5.98701524329007
P         0.87666479062886   13.63119679682443    6.86247723310528
P         3.87188106730531   15.66851105424428    6.68400520848541
P         4.21750830105276   12.54167968981362    4.18875460908667
In        0.62108032615060   11.81682861088420   12.44298449889632
In        3.33161353787604   14.19259713260221   10.64772743046301
In        4.43142898694467   11.46282231194057   13.91820766149547
In        2.32241449154362   15.32579917636457   14.10022806178298
P         3.29403976354086   13.33076686070081   15.05612632937227
P         3.38497054419010   16.21728389082701   12.05460737023031
P         5.83365858295369   15.83997217958396   15.05476467606931
P         4.96357178331456   12.88849275345247   11.93786727521158
In        1.48370094930967   11.80133177996741   18.12772309836164
In        3.89649506271248   15.14307167255796   18.44775479165562
In        4.23463395670399   11.49186202150008   20.68756791322573
P         5.22875453208662   13.22945538010453   19.20195505349677
In        2.44886677734861   18.08431644180338   10.78467736645151
In        5.19050553236695   17.44153151101740   13.29734691362911
P         3.97968909772415   19.12063268623280   14.59926984130204
P         6.33193601457261   18.65155266211811   11.42819898723795
P         9.82385515450689    5.45407409732936    8.93021684892081
In        9.93442643419268    2.89414488063906   11.71735362644855
In        6.25752329822800    3.61780792798380   13.07411591770616
P         7.57047621858280    3.25829933329024   15.10577271024502
P         8.02094472320677    4.44976794021138   11.49016361818593
P         9.88316248314425    6.64264391443571   15.51775832878616
P        11.30406856825912    3.54527141910162   13.61100149479625
In        9.69808223969383    3.37211325852285   18.10172073131180
P         8.07958004415123    5.15015105321371   17.71873758655106
In        8.04219769706607    9.02261664737316    4.57715118808274
In        8.33241517783693    6.91770663186805    7.66012835400086
In        5.95150019366544   10.72146377427721    6.58000851242094
P         6.90401688401348    8.89721904012241    7.97649651318658
P         7.56723209877531   11.45305980539210    4.77454102813429
P         9.67191704785448   11.24228630666132    7.99975278123331
P         9.62255071875121    7.47176189595803    5.63018017171503
In        6.31713844540406    5.82399953507365   10.34399287930741
In       10.26503883935497    8.66590608888037   10.48745900205206
In        9.05384951795375    5.93400240463703   13.25798499402623
In        6.90415384829605    8.90137462806767   12.33886468480825
P         6.99350469082747    7.07785901787886   14.03181868623292
P         8.22655277499851   10.08165665415147   10.53676945092504
P         9.52982355311003    9.41432451683862   13.95715486761986
P        10.95773486520054    6.73058187657246   11.86300884978196
In        5.70716580707057    5.64709789265536   17.35495975146019
In        8.13763093845332    8.80164573347656   17.31082571409694
In        8.57480229239445    6.57275470802733   19.68460196557864
In        5.28955526965832    8.00741489617360   20.25968866758881
P         5.94213514948806    9.42012796917047   18.31468620776291
P         8.52462230764676    9.21218430881951   21.64899830874549
P        10.23456293519952    7.88552457377974   18.31289677822295
In        6.09448141356030   11.76960154538977    2.81859766792204
In        8.96807653725972   12.89139936633133    6.29184868462779
In        5.46969960588450   14.11459580952490    5.67011765969580
P         7.05591871333918   13.84024604257729    7.54064541802187
P         7.22801832170661   14.87109234397051    4.10752766009718
P         9.24841404337477   16.31121285225673    7.70496735585638
P        10.46851675602585   14.30857842915904    4.92080277827206
In        6.66166189662716   11.99405270439854   10.39863474785906
In        9.21244207137249   14.41070457170467   10.51542156411502
In        9.38122083417177   11.34172132319445   12.39983336792518
In        6.53781263126998   14.04911614211743   13.51554520373716
P         8.77126963163133   13.09379481527925   14.01270475470654
P         7.09167087057430   15.32235767408388   11.42625759513974
P        10.60395171175111   15.70257089804646   13.64083795690073
P        10.81985804373578   12.52598577587166   10.69190975075026
In        5.34321380438986   11.61591756393499   17.32768787351458
In        7.77242813960860   14.14733961942057   17.27595135916820
In        7.31565442905207   10.67836078956833   20.05308730630694
In        6.86461090812998   14.36705180811019   20.69554505472729
P         7.29896999060986   12.30160311497460   21.92969433467007
P         8.02721759847659   15.82341909293558   19.06328293128415
P         8.47706545411022   12.00798767569795   18.29448986185017
In        7.96595153383157   16.62876474958278    5.64531281338985
P         6.26241803102454   18.31424090570239    6.02512764435337
In        6.09131777724074   16.85101961692236    9.77134904738545
In        9.00194155942355   19.70482462186061    9.23080360751120
In        8.50651618956301   16.78977035506525   12.91877876817953
In        7.30591857554235   20.14862861524702   13.12922576868437
P         8.03982364852621   18.44101279545988   14.70928040291043
P         9.50069165694128   18.08715024517056   11.00413874382854
In        6.82530660400407   17.88533710833027   18.56231759771291
In       15.23265087239924    4.04224798438347   14.13726105946783
In       12.01554498011744    5.54137147256401   14.84310902058739
P        14.04940772243669    6.09441189135600   13.45192652700727
P        15.94746100364308    6.77866625205219   16.82557101905838
In       10.75846456694504    9.37464102045126    6.78632645132754
P        12.65567801214525    8.20284715681760    7.81471550805902
P        11.22786152915653   10.84452904926466    4.84640683715198
P        14.62549436477144   11.06672115216241    6.91512765401946
In       13.05894677079045    5.60873775202720   11.22941898386218
In       15.67852933802179    8.33290035445532   11.13306696162849
In       14.97656313641567    7.93093473122373   14.89252249232841
In       11.73854212161105    8.35204476279715   13.62254651527820
P        12.86046320206194    8.89878738558376   15.75471330911694
P        13.50968007658861    9.10706659418081   12.04316771604016
P        15.59972436930172   11.55661570819934   15.64043169867631
P        16.69560282867769    8.75783868096697   13.30311643209383
In       12.26291867876105    6.51819465439801   18.61934052397783
In       14.38493011903343   10.10211957810042   19.23027550421217
In       10.58226894753650    9.34246290641827   20.32842593177380
P        12.09588327778822   10.91178852962947   19.15702358391142
In       12.55738791133160   12.24091589769587    6.37825799166135
In       11.39540794171607   15.43873455103669    6.89553438740001
P        12.49508236081005   13.75821062132176    8.33230763509331
In       12.77633830043894   10.99892672840415   10.60791388828532
In       15.24512387591689   13.86266764867193   10.66137936493934
In       14.34593010356954   10.92296182485924   13.61335231777135
In       11.83922728660221   13.85498376179820   12.58501701079640
P        12.12595613216584   11.90578656052864   14.07436711669234
P        13.22963802834242   15.25469270902717   11.01208407330462
P        14.72682314903770   14.52238606921622   14.27863151425395
P        15.81799090915396   11.82150166913769   11.84090610566912
In       10.55648755319943   11.15804785768706   17.25471819394770
In       13.14164434248022   14.06025138561458   17.59292974570824
In        9.92195556689424   13.28495629051197   19.89330893531998
P        10.90197617399866   14.80783610556009   18.19433367102331
In       11.73969814979604   17.15852484643198   10.46348461635323
In       14.02038805396296   16.48714891869233   13.04847612574447
In       10.60385922632085   19.45485368129009   12.78340708684873
P        12.56898195779530   18.34586536999523   13.70015789460671
In       10.75483711027042   17.04875158768610   17.23316815113979
