26
 energy: -1.674612069855 gnorm: 0.000464447795 xtb: 6.4.1 (afa7bdf)
In        3.29675891518009    3.43579322332736    2.29639025206103
P         1.89287295164009    4.87123814038089    3.64587101137160
P         4.76845321101278    4.87783503801273    6.49421556110813
In        0.45742578916322    6.27512281047708    2.29639122191835
In        3.20280237027071    9.18792611394240    2.05428464056892
In        3.32187866236500    6.30024363996865    5.09879499561957
In        0.57175011767102    9.19123108275439    5.08417462136194
P         1.89947063119707    7.74681924626428    6.49421504261350
P         1.64127563222490   10.54504110910631    3.35156170599027
P         4.23181938979771   10.13484325021547    6.31698068411189
P         4.50861394265349    7.48697769476887    3.25008408413527
In        3.04218628163815   11.77615807648890    4.96495785439223
P         4.38835746985519   13.10561964889708    3.42109970555445
In        6.21286569281881    3.55011479222836    5.08417556248188
P         7.56667701700199    4.61963873302771    3.35156278339112
In        6.20956431421552    6.18116759858691    2.05428581331051
In        8.80106451339566    8.82692208609503    2.02912893452650
In        8.79779309632800    6.02055097823604    4.96495819259138
In        5.77281913428116    8.75118429755687    4.99480076607720
P         7.15647748478272    7.21018375292233    6.31698036998711
P         7.05042792339960   10.02879351429824    3.26549250678057
P         9.72645659084042    9.76795785052095    6.34545500545477
P        10.12725145351688    7.36672345254850    3.42109841867711
In        5.84855356910189   11.77942935622994    2.02913072950296
In        8.23239627355880   11.21075983121198    5.10647605038085
P         6.78959507207652   12.70482218191981    6.34545348602518
