36
 energy: -2.514242548125 gnorm: 0.000495194300 xtb: 6.4.1 (afa7bdf)
In        6.41392513580382    6.19898158001526    5.06363198235112
P         7.10646918493304    4.09410134348430    4.07942237477603
P         7.07392157101424    8.36878745964282    4.20245397161901
In        9.83776664030433    1.59858862735851    3.88608495753326
In        9.73063351800630    6.23254097943562    4.00640989609355
In        8.13451887075486    4.02372832839468    1.85950151617174
P         9.13066526416997    1.79659161642388    1.54326095095758
P         9.16030598560510    6.27451909519372    1.59269509117345
P        10.61827167084998    3.92261035543508    4.30295263556607
P        10.91873181644881   -0.58485929026593    4.23893043147263
In        8.04976470647070    8.47032502435478    1.96001592215120
In        9.67556203599312   10.83296563376207    4.05090924077659
In       10.04830606674928   15.34299649402938    4.17925513008738
In        8.04445643278427   12.98070075832059    1.38284942746665
P         9.02427947674524   10.74112128494201    1.66000439741253
P         8.91849080355755   15.14536888692708    2.04109420991648
P        10.82513997382294   13.01763189181824    4.33295370875120
P        10.59878126039859    8.54375087289815    4.34869013450514
In       11.91378418213651   -0.69027693569776    2.02466063194989
In       13.20859707841871    1.87925451359435    4.38058898545558
In       13.06735688911707    6.27289903599414    4.27519775085833
In       11.58634302741956    3.93791965442861    2.02215294227267
P        12.59000525169916    1.66866034021180    2.00494265067317
P        12.39396416168464    6.28635234451545    1.89188803188876
P        14.26316114520285    4.10199278114167    4.23436545529875
In       11.49721836510562    8.59882126876664    2.03934734988356
In       13.11221664789736   10.65447081306092    4.36440510619800
In       13.90840680071234   14.88504615060659    3.74003098549290
In       11.50052560976825   12.95023564264956    1.94867038323431
P        12.68108842662799   10.77206602391640    1.93214503328253
P        12.60594139372040   15.13603573852714    1.71295063718270
P        14.10737164981842   12.81463984575589    4.97611045193270
P        14.24419655361763    8.44886946089146    4.45355143272974
In       15.28840614398992    4.28114816291835    2.02097881630189
P        15.42199974100671    6.41126824479287    0.86465542071053
In       15.37870151763728    8.37274597174877    2.29060195586046
