222
 energy: -15.790627219627 gnorm: 0.000091242961 xtb: 6.4.1 (afa7bdf)
In        2.25824896828746    8.09182051488692   10.92978930647742
In        3.72284876987313    6.02540840481063   16.55026271584705
P         2.58225724551711    6.07507736185074   14.41058898940913
P         1.70114494346684    7.48595052980080   19.42089119681481
In        4.54245371667118   10.95829045313408    4.66118961610647
In        4.27256908544948   14.81192940473367    4.85950141396644
P         4.83142591266528   14.47813687446346    2.50845768289017
P         5.32339835874915   12.84533745079535    5.99881575701896
In        1.67660885889610    9.70879958402189    7.34849594820115
In        2.39417375349563   12.04497520974757   10.43776121991842
In        2.45860271942271   15.84088016352000   10.31458173856775
In        1.38718446599471   13.82763430516291    7.30445683538775
P         2.66092938399619   11.83917094520602    7.98542236422945
P         2.89574122561335   15.69104261365248    7.88107426669560
P         3.74834857492343   13.94857962345287   11.28876294062579
P         3.63316647744363   10.07325980546054   11.30241633105492
In        1.08097167561215    7.98851109969515   14.58092292191933
In        2.08183752928527   10.56862622428538   16.55950379118292
In        2.00640527574956   14.44512590028966   16.28391361319386
In        0.36710707472624   12.39214171147894   13.62483792742072
P         1.63726863627192   10.35406046738452   14.13121867633346
P         1.75800131698833   14.41474738292781   13.81653896692364
P         3.48744333482510   12.56479167200880   16.99745427489691
P         3.36609744975865    8.45197714961001   16.80190447548155
In        1.41493741106613    9.28532161244395   20.98078068890372
In        3.89532770830309   11.75948614700471   22.88707392722224
In        3.18385182530377   15.81956994701098   22.12655666695200
In        1.16787785985019   13.45299873096581   19.95359356257988
P         2.32096898988667   11.56285714574422   20.99286168719376
P         2.30666958721368   15.62770502383638   19.80840289257773
P         4.86359966135331   14.02465704773821   22.53003749865895
P         5.88071034197980   10.42881925328900   22.26534185666160
In        5.34897028364488   15.14266271868631   27.83540740819605
In        4.47496139830268   12.29966922512825   26.37371452691439
P         4.35353168575432   11.54208382720217   28.65630657530256
P         4.78951650821995   14.58853438740681   25.45083639638792
P         7.24840083568249   13.58191505097015   27.84093187034175
In        5.73476654060912   16.50211789056953    1.53233097991885
In        4.89201358218648   18.46301423732278    4.99876346707418
In        4.29352727540312   21.95682668300468    4.69717117486399
In        6.77833868122293   20.54099834418718    1.51367030306264
P         5.70363943339876   18.66865039603692    2.67851534727516
P         5.41199135144817   22.30844368865429    2.52578181672137
P         5.46055148630897   20.49464293694317    6.35416116343145
P         5.91269541836579   16.36380220415825    5.89617412412226
In        1.82047365097654   17.74548362859579    7.05917117665365
In        2.44625333920140   19.64456018782888   10.39317854483757
In        2.51450009098870   23.48634781003686   10.38982304427302
In        1.28044077215382   21.61595904394142    7.33026901287324
P         2.82620045191973   19.80448777415967    7.95348478198191
P         2.55688804807893   23.63629687563235    7.91196122702861
P         3.67480452163089   21.55088017004320   11.43942642539972
P         3.71778558006783   17.73337136753292   11.35144753243221
In        0.31987322538453   16.37735196896285   13.45084823600374
In        1.99857061119304   18.29751099950428   16.26023923250007
In        1.91901302166834   22.09060342280692   16.24705759112375
In        0.21025798847748   20.27956603447124   13.46131417375282
P         1.72776642023615   18.36613451919268   13.79860049343066
P         1.71693940384882   22.20164840418821   13.78019676199700
P         3.41358186848217   20.21949240973522   16.95963598333744
P         3.44625280185123   16.36719297826434   16.91823923103173
In        0.77054309569547   17.55184747810816   19.78769119220946
In        2.89900076197510   19.70521366959735   22.05288272629218
In        3.06552207284017   23.13053707145183   22.00429742340209
In        0.49992017350204   21.47824296848063   19.67578524554341
P         2.11497886272396   19.61652537443912   19.70498391786938
P         2.13971020721938   23.32153424737119   19.71285319981979
P         4.76808107136878   21.33605915766579   22.41791958079110
P         4.57786774502321   17.89247422381708   22.32007132259353
In        3.28759744305340   16.56571230609928   25.55982702287208
In        5.51284271653315   18.90740552639470   27.56973167005150
In        6.22975683930375   22.72374512174046   27.93338294132094
In        3.12333735322022   21.04337997441350   25.75980808009359
P         4.20544594483333   18.85230100515389   25.46213933632851
P         4.36465665541571   23.07347122430116   26.34695849471090
P         7.32319134128538   20.58259758748959   27.34708238355844
P         7.01570014642497   16.94230507063086   27.45942249736342
In        4.63697522298860   24.41164199776107    1.59096036905472
In        3.87851445800710   26.10277019899644    5.20383711591962
P         5.26376806503190   27.95706822064253    5.85132831330219
P         4.92829752054889   24.00554722450171    5.97266197522763
In        1.06636356302119   25.60221747893138    7.86234930402087
In        2.48954463787877   27.52833061694868   10.83458974842234
In        4.42490853610223   31.84168912406804   11.06265805246540
In        2.09874568212472   30.15420901102807    8.07497450923429
P         2.16612911262851   27.72894691729470    8.40083093314896
P         3.58652028049821   31.93646985930681    8.76795697704888
P         3.92995546883818   29.44721237486734   11.46026962203835
P         3.75526402811378   25.45178674195983   11.29263936740271
In        0.42216271243426   24.27102769748305   13.45077080569435
In        1.93292331631954   25.95927845441401   16.43264762308773
In        2.28728189078484   29.91271728337794   16.78149736949470
In        0.59418846578553   28.45223890665272   13.88304161482853
P         1.74613761294017   26.27314125015610   13.98380021097411
P         2.23518793076597   30.25511026975176   14.30423992568410
P         3.45417674002082   27.75141879102172   17.24714232822486
P         3.36918916074929   23.98504240228693   16.93636002140240
In        0.76662021224474   25.34857893547049   19.99568516928910
In        3.32305832774626   26.87998591049447   22.28012339387035
In        3.65709149981832   30.63146163201814   22.98997686101555
In        1.06735072067368   29.30519318156408   20.34608228946248
P         2.35062955061572   27.23343070809963   20.03151987604597
P         2.44483027826356   31.19527369519476   20.96704116117534
P         5.01760188129414   28.65922185737474   22.50966461788992
P         4.79080203339319   24.87413975199898   22.36717247295688
In        3.67737767084256   25.42608274852526   26.24215910557376
P         3.94941940598804   27.78664024474296   25.89284193514859
P         8.10387256774416   23.93060111387073   26.90366144183496
P         5.95322080629250   33.16584154752498   12.41577449638724
In        1.40178088771702   32.51512188405803   13.89407017428729
P         3.58344522604767   31.60714373507831   18.03777968474321
In        8.08652221484410    7.43534206637799   10.47128775793095
In        7.56387038566747    7.67439794985256   15.58042211915250
P         5.88298022871983    7.07962878274418   13.92030294634891
P         5.82080384735630    7.59425537423257   19.39506833878462
In        9.98657267764340   11.85589964139960    6.81136445182344
In        9.88617989600727   15.53918824163547    6.72043354412838
In        7.32089692716445   13.41796220543299    4.63169255065425
P         9.31520595692366   14.85370049736746    4.41276483493553
P         8.52183389364555   13.63846979225876    7.60845375703072
In        5.05152151913525    9.93117322704978    9.28774129902394
In        7.88746855534534   11.08600341919005   10.62006710004295
In        7.84739664872189   14.84291366141465   10.76990383888831
In        5.19012003738934   13.61731027901454    9.28901854392663
P         6.62934078152667   11.69455810356324    8.55943212247117
P         6.66984101703663   15.55376171813212    8.67709746340784
P         6.86979373549410   12.90011655215516   11.97961275755224
P         7.03772816577213    9.11424721809014   11.87077076474201
In        4.46081961618668    8.97541542956960   14.63786391353354
In        7.24939438120503   11.43615369399542   15.34273253066214
In        7.28337548029280   15.30482272040096   15.26962701050627
In        4.38110464699570   12.82101436183485   14.68999243930205
P         5.58048571774832   10.93178356795705   13.53035440381417
P         5.51854986750403   14.78263309844858   13.56338250536719
P         6.70829137438518   13.41133151817857   16.77797426975351
P         6.77418116225917    9.56825271249550   16.92112545407173
In        4.89735750924202    9.73302144124073   20.13060829114894
In        7.95607436758100   11.00373975013405   19.85534195782687
In        7.90313019878383   14.89359218631677   19.87890154683524
In        4.96278008103276   13.51545978765333   20.09576897646567
P         5.80264590257170   11.58141152965640   18.70052172903798
P         5.79185993493925   15.39794286740439   18.62648144336196
P         8.20064536066438   12.94106619098632   21.34504849286859
P         8.45605488824005    9.02460062242216   21.18338115985396
In        9.94137323935005   15.72532106406327   24.23454176972858
In        7.70444603616044   13.35188339471058   25.44476251985783
P         7.63685989864260   10.99243550624334   24.84286572839445
P         7.64436809446911   15.02910580363021   23.58101453797728
In        7.81916435755320   16.83457066619359    4.37656246537746
In       10.01184737195962   19.22100702012168    6.62795750701798
In        9.70043557506854   23.17935849544473    6.52630017843100
In        7.51141828049863   20.85325368905070    4.97341989013640
P         9.03601783924863   18.99026331391723    4.37438533906070
P         8.80379070609564   22.84858578646808    4.25167156757491
P         9.03929312840814   21.17149374932977    7.79582728256219
P         8.52800112121423   17.45328419202819    7.53574329736486
In        5.19004683041935   17.47754251825608    9.36192493002580
In        7.91948695392338   18.62217614192367   10.79199367096501
In        7.98988130308077   22.63398312848718   10.70621747110392
In        5.26777824367822   21.21669951296489    9.55401890568247
P         6.73993692597392   19.35505065356208    8.70962630295192
P         6.58401979826511   23.17057936161031    8.71336120431086
P         7.14495970099420   20.66632625278974   11.98019070154449
P         6.86769689098711   16.74103408824251   12.03319020177163
In        4.38404044801921   16.75082482772728   14.64781641079878
In        7.34889177511110   19.17651732574319   15.24719211949849
In        7.38316061916046   23.14933330922963   15.19548502009647
In        4.42858652364598   20.58526067440066   14.71883550948485
P         5.58286334945251   18.68638210372970   13.54286175097064
P         5.57820909352808   22.51276042633848   13.57825516535577
P         6.86918469496692   21.18982089149632   16.62917757970681
P         6.72684492342080   17.26463663866300   16.71232214276542
In        4.98183017748606   17.39956149876197   19.92641560313590
In        7.99478404958631   18.67511715584181   19.67620204825503
In        7.96166848503281   22.75195563348647   19.72849926049459
In        5.06089450321058   21.17415292969140   19.95408565818042
P         5.86295749592797   19.27562953277965   18.50525229830889
P         5.78932116477308   23.13417928247173   18.55772003469290
P         8.09733538013112   20.70227938729690   21.08782794996002
P         7.82255421423798   16.87159869053164   21.36809870166891
In        6.89991744084843   16.97722035119928   24.99824708161555
In        9.64761637756915   19.31109126895842   24.21765902732792
In        9.70819072940729   23.32860330313953   23.94161256695159
In        6.85114251041766   20.83904852118237   24.94146751820685
P         7.31732369828125   18.88346721356528   23.43027202557996
P         7.37665834577331   22.66659552148328   23.29832693760843
P        10.10874292376229   21.40299686848359   25.41070743598836
P        10.03692953798967   17.53170938929784   25.86989716736089
In        6.91694826113335   24.39319230177374    4.55260931315948
In        9.64211581784248   26.84422698809062    6.29872819856347
P         8.37358705626410   25.08877976070118    7.40591988757608
In        5.14575176469961   25.14052755141067    9.26049779804131
In        7.80820065169492   26.41129152533210   10.69253259700272
In        8.14244976478187   30.26575182350146   10.79896877811399
In        5.16526518125828   28.93876615102337    9.37192067274392
P         6.61990491735831   27.06274359911274    8.59721363718007
P         6.75276803391190   30.75855852069185    8.87036318874905
P         7.13605621197940   28.39775105392851   12.00141595783212
P         6.90692853183143   24.48064084410801   11.97525621911755
In        4.35081501558032   24.40290550147356   14.69031704833406
In        7.47650288276059   26.84748101434894   15.21517691624564
In        7.66579353375580   30.51888849349568   14.78766050931029
In        4.47742344210829   28.09156099496875   15.01646931968274
P         5.59830689671330   26.32718187218390   13.63468257524873
P         5.23932196871110   30.35320079602753   14.31391612572711
P         7.38751216677179   28.89087664991714   16.60340773290331
P         6.76168550996335   25.01837441895995   16.72615059689326
In        5.00463277505458   25.10619379257985   19.91003313608128
In        8.18723346486228   26.59786333817125   19.77468310678576
In        8.81796779028245   30.40372597411756   19.75090109144275
In        5.45465310180402   28.94438790479063   20.10227225237455
P         6.01874921762224   27.01610956359034   18.62548907056482
P         6.51417784069708   30.96825745801210   19.09774395732619
P         8.58795882168190   28.51978405374227   21.26505571014091
P         7.86901168382800   24.67153479490230   21.29341757106357
In        6.87296729519891   24.55347932086964   24.88891169799883
In        7.69023271929844   28.20623491999151   25.35792594342549
P         7.62898457879776   26.54420395389159   23.60618883623165
P        10.44478644025136   25.25168713007290   25.23627822693452
In        4.58226852766508   32.12797194119464   15.87748642828356
P         8.25909367182391   32.63669612786781   15.80642607405108
In        6.04727690619750   32.74702985211485   20.69571076909786
