20
 energy: -1.285216288571 gnorm: 0.000420376632 xtb: 6.4.1 (afa7bdf)
In        3.88226445162515   10.29919042565193    1.52362922111083
P         1.89655975689496    8.92037654899616    1.37275058751511
In        0.38981418546726    9.36001083214815    3.21877152739255
In        1.75021776512833   12.70120860235235    4.56732524023513
In        3.54305768097791   15.48107109068517    3.40274721615303
In        1.00388892016602   12.25107782617754    1.11364874209767
P        -0.12163838069459   11.75976604770569    3.24671128787599
P         2.02423754775982   14.40626339822580    1.76629799660016
P         2.25005047882264   14.95769326441984    5.42379084051474
P         3.70185436739296   11.92823976591566    3.30897617515281
In        0.01660044903036   15.15364588864978    2.99437401704648
In        2.66851862848816   18.60178682191547    4.75927917810726
In        4.19763309312547   21.37237222596750    3.22758705988586
In        2.03113435345702   17.76882954637480    1.39286129037337
P         0.87606267474001   17.40621840307948    3.53983537894404
P         2.52824778524598   20.13745734349237    1.88407954302746
P         3.17630995819588   20.91778205290621    5.40290640634058
P         4.57110188927135   17.72368739680574    3.48222091835534
In        0.49080154774100   21.06992410173833    2.81695900888317
P         3.79875784716867   23.68639841681763    2.61544836439396
