26
 energy: -1.421827258273 gnorm: 0.000533255087 xtb: 6.4.1 (afa7bdf)
In        4.14594641829342    2.80101094610067    4.25953126850147
In        3.78509488344696    7.50331845867099    4.78642926953959
P         4.25004433882747    5.15041288889942    4.83297268826576
P         4.54995462422284    0.53838093008326    4.92983598537582
In        1.36713175369679   -0.39441409234813    8.10447803518882
In        3.12052744615033    2.14213267829902   10.48881945019755
In        4.30037019681620    5.44970862545469   10.57292565860189
In        1.67618449247941    4.09606115168750    7.58320366086684
P         2.35483865896466    1.81919276903509    8.15806902475419
P         2.88756857660533    5.88885655764004    8.65560352073679
P         5.37452425764094    3.21343358093339   10.56922713878895
P         4.14372345011485   -0.08598933591076   10.67172017144271
P         2.84891424257500    0.32294948131377   13.77029672780316
In        8.70202763815899    3.57018096562319    4.61431925495349
In        5.22418944289783   -0.43467621325838    8.53523769574949
In        8.15698134189983    1.93710465862591    9.21880231464983
In        7.72992636314160    5.90302886497422    9.08585664385717
In        5.30938943127197    3.34709953280349    8.08611758117475
P         6.55576766681718    1.30458837096562    7.43336371755205
P         6.15290622671334    5.52095366040536    7.28820509656102
P         8.26122418816805    4.02135619699072   10.52863051245705
P         7.58211898688802    0.41975010114301   11.02200966038256
In        6.59912128407200    1.25837052558544   14.68785227531147
In        6.75417608703498    5.07027522309221   13.77848300134585
P         5.37418339684231    3.07467455926578   13.70156162383626
P         8.30877210626769    6.59099891395590   12.77122802208382
