44
 energy: -2.964045616854 gnorm: 0.000509992764 xtb: 6.4.1 (afa7bdf)
In       17.20070826021173    3.40773040978736    2.48734999541602
In       14.93343378095915    1.14645518787481    3.65001259337858
In       13.97485191651742    4.93693739700564    2.75850816015051
P        13.89642542271957    2.62296892204556    2.02021732855621
P        15.75409800548662    4.28997376668503    4.31022600510386
P        19.44010205010915    3.67657730568628    3.53095460915641
P        17.40878837820543    1.17682928105370    3.59288432677800
In       16.21103046945921    3.37504612572966    7.99323865622744
In       13.40994481824559    1.03320856388777    7.51936209431762
In       12.16237159619779    4.44826909456186    6.46769377313425
P        11.88510370858272    2.09730236438560    5.96670120611104
P        14.40935750038777    4.87308928142487    7.25623508878555
P        17.75684920689721    3.33628098000329    6.06495633125634
P        15.71872858385339    0.98163408761706    8.32911613777227
In       17.61356624487605   -0.20074015171760    1.56044433442418
In       23.37315282350001    3.32391209834985    3.30692514312329
In       20.83010661737559    0.76114527185028    3.06640622650026
In       20.42847589300371    3.62082966167645    1.26610018259368
P        19.48539403910875    1.32496989237855    1.06598624915666
P        22.69143049678928    2.64236163602963    1.04506955143895
P        25.08084581192993    5.06938271236658    2.96107457525896
P        22.95887998611597    1.08439169236245    4.31825351406381
In       17.05006394233854   -0.46708638904783    6.87511072103785
In       22.53896327589553    3.13502057712955    8.84798043396067
In       20.70305194515180   -0.95098104626578    7.83366769514282
In       19.51288788322144    2.19025509304867    7.38230303240246
P        19.30985453557021    0.07079491444430    6.07439814196613
P        21.57838309554700    3.26051445981541    6.58944010153880
P        25.00197939089194    3.20928360636315    8.84618105609230
P        22.07035540882424    0.70475484942592    9.03455235356847
In       24.21697983594017   -0.13684247542928    2.58001174211735
In       28.82836899715299    4.03833930890713    2.91763547956324
In       27.61711762847274    0.77456967425489    1.44209852794309
In       25.80852748008065    3.97265202830563    0.89227170024487
P        25.29516069867909    1.55619106636798    1.13393174971924
P        28.21256298460249    4.35883024185102    0.59785641197710
P        27.52366530869973    2.07347980393136    3.50216248441194
In       23.98627953250847    0.30339747170409    7.53308774320798
In       27.85587648228078    5.41368024708313    7.74090352296455
In       27.63542108177130    1.25205934929010    7.05674576864438
In       25.09120542940501    3.56821006650571    6.42599851696395
P        25.51114325919073    1.19174758114744    5.79564979602604
P        26.63149299233760    5.32215783982920    5.64759536026227
P        28.04673984956219    3.13113797627880    8.54302157755301
