164
 energy: -11.585252927071 gnorm: 0.000380289563 xtb: 6.4.1 (afa7bdf)
In        6.04464786610601    3.39621249961531   11.07292546350917
In        6.26221067337017    7.73969865121277   10.14977223690473
P         5.52093927013871    7.39137765005324    7.87015301581403
P         7.12654468963028    5.62183641911089   11.14930610394394
P         6.71614376308395    1.21992738009052   11.95873203799557
In        5.98789711802555    2.03657329884858   17.16294447414959
In        6.08100330047739    6.48965233015958   16.38688529935225
In        4.11202661248702    4.12385812537211   14.34334749115989
P         5.06099543512223    1.95436648219549   14.89236022734276
P         5.48045514754892    6.14643786639775   14.00015500226493
P         6.98198059411666    4.31733744184974   17.21010497968228
P         6.91371548294853   -0.19415196569729   17.63576725770255
In        6.24027529334698    1.07782304611629   23.66824548100464
In        6.46860387822487    5.17751281315960   22.30286365611529
P         5.43600063644285    4.85276989530898   20.13045958340722
P         7.52331549583939    3.05625033754005   23.07300628307804
In        6.11514112807129   12.14292870525789    9.96530694131968
P         7.24398458718035   14.26253099726179    9.57782343609018
P         7.26517803379778   10.00903065139586   10.40778533299128
In        4.32822501551493    8.26600223655967   13.49602442110932
In        6.15352734454360   10.94499090482885   15.66444631342771
In        5.76425354332331   15.11346195170128   15.50987846472276
P         5.39123733300400   10.45230195859818   13.38601672398062
P         7.24425570825257   13.18984650212837   15.75692755516044
P         7.07749978167694    8.77178642318639   16.45421643496142
In        6.33364212644842    9.46204302554198   21.57366468949350
P         5.39644074199383    9.13095884159920   19.35904601182944
P         7.25957482161764   11.74086045713653   21.69234315414775
P         7.53925577581308    7.42999487402013   22.37032357965839
In       11.38773050985840    4.62552876026338    5.49775614632441
P        11.31723358543492    2.35174628403725    6.25359689487556
In        7.74821230575767    0.63814317696972    9.81872012472251
In        9.44122892907165    3.15306352436612   11.47683108905732
In        9.60617653489164    7.70652691610612   10.67894369996131
In        8.14682632477680    5.15342503065549    8.92493811519902
P         8.80472564070918    2.75855710596102    9.12161567360737
P         9.15499743478041    7.33608625070597    8.27762634399890
P        10.39332771574766    5.46286278253333   11.43402970125379
P        10.16822471967390    0.88824062506469   12.13704868013106
In        7.52686190335582   -0.76401606247928   15.35017612282777
In        9.44237712226146    1.80911217667592   17.16149522367191
In        9.49916059170855    6.40232147783167   16.40564000322323
In        7.76997371086790    3.86832051654580   14.90896153242875
P         8.44996481116181    1.47784946598087   14.91273243792909
P         8.69066552683638    6.03360032419918   14.08747691871881
P        10.27979238331061    4.16435225928763   17.18456628878825
P        10.40012725968818   -0.41521231575046   17.66482000317248
In        7.76824837909295   -1.86621984475050   20.93482181303785
In       10.06304072799409    0.49059649975971   22.78152690834812
In        9.94131477047473    5.11082531282819   22.19016788623520
In        8.02679990089753    2.53548644663373   20.70646355352206
P         8.94808804260096    0.22933313208384   20.57791075608190
P         8.91884155422631    4.73435473607890   19.95866545653180
P        10.82157984260896    2.86373104271055   22.83049107213902
P        11.18573454295237   -1.68968211774957   23.06163046418815
P        10.01013769042516    3.27462677610888   26.01595924935449
In       11.55291729589293    9.21040063062726    4.66311039478420
P        11.81505133044203    7.00813966413084    5.58463321368387
In        8.32113687340235    9.67822386413506    8.17911620564896
In        9.78518467430105   12.22143368185331    9.91885118214347
In        9.97814844840311   16.80702190783192    9.43850812818097
In        8.46922996276252   14.11183169340768    7.45460844097780
P         9.41769491901044   11.81319309973430    7.50415393765764
P         9.52900668151995   16.30205720865734    7.10534196363745
P        10.74344325940453   14.51361365839980    9.90828229861191
P        10.58971404784159    9.99959224899690   10.70651811063266
In        7.90564346586558    8.39667324473855   14.15311251203988
In        9.61328553816765   10.97056053119738   15.63411915766363
In        9.61733540105810   15.55332643504613   14.86471156298147
In        7.94124329817145   12.88245403521133   13.39278215728406
P         8.81638168868414   10.55632823900714   13.32327945387834
P         8.78999935710592   15.05707617955226   12.62700887488385
P        10.38605044167460   13.34051847590760   15.65254110754316
P        10.36483922921880    8.74286525613780   16.46639097281501
In        8.07998904343740    7.07899896318593   19.97371765413894
In        9.85468910605278    9.69119988948721   21.45099423598776
In        9.77255295152324   14.28036022975645   20.64500889678196
In        7.92687516831489   11.63448104813950   19.33295591934306
P         8.84839197245510    9.32221218844367   19.21113810769171
P         8.73748312358894   13.80725279296036   18.48506979234226
P        10.61700593902132   12.05214615572341   21.27335187324392
P        10.76144876027115    7.46641263775829   22.12714574082055
In       15.92940031314078    6.64467290114798    5.71009101464224
In       11.20214506639749    0.49350684988919    9.95560970412433
In       12.91255027264370    2.88680686085827   11.65547600573900
In       12.95417876472009    7.54830448178341   10.98525030093292
In       11.52844853911831    5.04826594190096    9.26431939513113
P        12.20418732249433    2.65539681111699    9.29387454273057
P        12.51290830033847    7.24320644672196    8.56720040015758
P        13.64493832543673    5.27725250656330   11.74613424643898
P        13.80839596842365    0.67704421305723   12.20304415217093
In       11.41946644307269   -1.02067332856601   15.53743946196614
In       12.75775625848314    1.85972682464301   17.18825628520894
In       12.91789114507207    6.32781580025749   16.36680650772979
In       11.10969332791242    3.73232225228905   14.89232419986547
P        11.78441497636624    1.34667510458552   14.96723746468057
P        11.92977374027345    5.95481192662739   14.12749182898965
P        13.78027585192802    4.12185883142801   17.10144766157574
P        14.21296515364197   -0.04746037842775   17.70873836722309
In       11.79605153138721   -2.17466111193090   20.76181791251404
In       13.37190555591468    0.67188049511150   22.53232966587156
In       13.37569670334055    5.14522620894159   21.92486663951493
In       11.40386359433395    2.54949225108514   20.45021140191775
P        12.24205092170347    0.21171625423452   20.35848272182630
P        12.26387608794362    4.77626292451344   19.74409095301269
P        14.37333724414509    2.93485379122235   22.45074503259167
P        15.05420525931969   -1.02327637141618   21.98577076172064
In       13.30581365688072    5.80283336205771   25.74022455127244
P        13.12535837047442    8.00188318723724   24.79442242266129
In       11.73180831631535    9.61876322871135    8.53281294195664
In       13.17358817779594   12.18684500970986   10.26714241109661
In       13.77538688312993   16.88065007071799    9.66771244365606
In       11.94844400883053   14.05485827910473    7.78078295249132
P        12.88894083180478   11.73462966576859    7.84954653081915
P        13.02896101237233   16.24362366064413    7.44696386996181
P        14.07037763217996   14.50900718445248   10.25565546990631
P        13.79849954766280    9.89710991847050   11.03575422663638
In       11.24824489788894    8.35226381052559   14.18740201965691
In       13.02989175585511   10.96629553611345   15.69525717669142
In       13.41781733459222   15.65904452420359   14.95733894265310
In       11.37167610742759   12.96893157702020   13.40809244047996
P        12.08765474037016   10.57671027634162   13.44115047214677
P        12.35503418093578   15.15526092095505   12.82552816442493
P        13.82590441050948   13.31443679783834   15.58895499656703
P        13.72089877909940    8.68140433894599   16.38385431913011
In       11.37748980152452    7.10451503312946   19.76207367172143
In       13.26591869857046    9.82660220093209   21.16779326291504
In       13.48218471973112   14.34095165364767   20.36982855217006
In       11.33712377498004   11.69113015260310   18.93854511527627
P        12.16476360970400    9.33907405914516   19.00110426362825
P        12.25468486618851   13.89472264253216   18.31749961920496
P        14.28017713656584   12.08553128469468   20.93489558969867
P        14.01334029446972    7.55374863891938   21.86923425715534
In       12.67829360196752   10.38516804103626   24.80719537882436
P        12.88458359960417   12.62013189444751   23.96400428078360
In       17.81821980262795    7.30194058539302   11.20796294005119
In       15.06198992046174    4.82465705381251    9.75700618156932
P        16.59087472065139    3.55068889527930   11.15670751704065
P        15.87736764633487    7.17251775893762    9.76316995476270
In       15.58077317084886   -0.04455553696037   15.70494986054898
In       18.08821769236825    2.64879021248459   15.12174073327207
In       16.50355072840077    6.15865044780500   16.31693124891412
In       14.64759186633810    3.55054299880775   14.84942192900897
P        16.10094984703178    1.68779069707687   14.02659085477173
P        15.33325512994130    5.83447296940826   14.16161440613948
P        17.29656755789905    3.93529166422012   17.01924361159486
In       17.07319816733291   -0.13004911849335   20.99620474069185
In       17.23533951726560    5.38767276421851   21.54608538503241
In       14.94593506321040    2.62863634642630   20.06712296210442
P        17.08170420678535    1.63154977358454   19.32913884015815
P        15.72870653032246    4.95859235513909   19.68507468746723
In       14.99720703806271    9.33891703387939    8.92772558458970
In       18.12887088595507   11.47781211093984    9.88461255803545
In       15.34832560236270   13.93831423175046    8.21752777391379
P        15.96683259117091   11.61711608510843    8.78707608722234
In       14.69930022460027    8.24205315807849   14.15718837202514
In       17.27061039706634   10.61834776074356   15.23057821762218
In       14.88415197183320   12.72490210669400   13.41998878034962
P        15.70257619439292   10.37397236137623   13.35655376703267
P        16.64046521986656   14.34959320019496   12.99351964909652
P        17.54012884617706    8.37038843226737   16.10296120036265
In       14.69460931956067    7.21468230350329   19.50631053931770
In       15.44700780264555   11.54623804094446   18.84435420188908
P        16.06180428804259    9.23040382982672   19.20911473479075
