78
 energy: -4.812931130841 gnorm: 0.000724698298 xtb: 6.4.1 (afa7bdf)
P         5.84041917809783    6.25813417663958    7.08033864584250
In        3.57592975940286    2.40466560145562   11.05433346241856
In        4.13049634724969   -0.36429693553197   13.77460543214076
In        1.87977798420817    3.73843702261992   13.73789852137379
P         2.68480084502210    1.51240013491128   14.28170550351429
P         3.18160718374723    4.71864314933494   11.86041167339498
P         5.06799600354513    4.10868517049302   14.94621178613156
P         5.22998222285820    0.74157620934291   11.85371988688245
In        3.66695525162092    2.32033255033255   17.97765907885465
P         5.65908790447183    1.83245098653344   16.65507732489804
In        3.73134128608106    7.36004707364889    6.57991158833025
P         7.37733949162236    9.07765266192403    6.55590577655090
In        2.05032482719507    5.88504963520562   10.04216838399689
In        4.24927338029175    9.61260695117467   11.14978696178346
In        4.43291426402196    6.05762516249362   13.56462434467577
In        1.19752794150118    7.48122727384954   13.77573323614714
P         3.16814865690824    7.43782809656959   15.19321643250016
P         2.12071825367731    8.98084605528152   12.11236716918735
P         5.24554703495604   10.60439696754494   15.35423235209249
P         5.56413980754484    7.74934548775397   12.10057119070681
In        4.39024393906083    9.23179468058759   19.16291961949533
P         5.57073699591133    7.99647573484931   17.45086074489700
In        6.31429451232114    0.59430279521794    7.17391939385501
In        5.01421931556002    3.97674159117887    7.64248647412105
P         6.34432397405976    2.29125589020984    8.88762791349783
P         5.17577701591085    3.48979868523271    5.24431629068239
P         8.40965434856118    5.07785600626351    7.49232473882768
In        7.15641111146365   -0.62811662164518   11.23796578870744
In        9.12755070966865    3.37875417183432   10.89147573622941
In        9.88810458497389    1.11700920459121   13.34301042220561
In        6.15618600545463    2.55182944482274   13.34332032746129
P         7.93234772713640    1.53310632204121   14.77264049457820
P         6.80590878049647    4.03646044790891   11.42842290004481
P         9.78457086951671    4.47362648569301   14.20199292243584
P        11.20692042691045    2.16148429756391   11.49153495692567
In        6.32107223426287   -0.21022784387091   17.81018957664470
In        9.31517569415377    2.64424165370617   17.75567012618181
P         7.46658995901339    4.14268544582823   18.34220876021662
P        10.01567822590305    0.52718061668277   16.75119053892566
In        7.57350114666873    3.96137584214246    5.46121582084990
In        8.13182307060896    7.79877075356552    4.67135158791605
P         8.44146010709694    5.56019999245074    3.81516625381984
P        10.58939023448039    8.37580963241949    7.58987180090067
In        5.92004151825877    6.07059527023576   10.32984578817397
In        7.95269702916652    8.98653632723296   10.41521827175130
In        7.74672608564098    5.49197309379868   13.27704994092201
In        6.53429865290218    8.96320058692339   14.05523555192752
P         6.96066229070168    6.79340348792579   15.23493752103193
P         7.63698246834308   10.42079880449972   12.36689127010076
P         9.49889414461598    9.65230101990726   15.59543549443083
P         8.83684989266815    7.00382338582401   11.60657336009954
In        5.60966123312527    5.75266130271165   18.43387868889308
In        8.62566646597996    9.45238569679839   19.21081036996135
In        8.75744467591466    5.73269149555410   19.72226095233189
P         8.87399247193338   11.62011819919699   18.21193975331085
P         9.12409089924385    7.41053203633894   17.95025511155283
In       10.67122818301030    4.18536311473016    7.62584200615427
P        12.66310247949013    3.54204051676219    8.79943634296117
In       11.24820740492584    0.28612211634980    9.89695696405828
In       15.05811322590410    3.39585667135215   11.46175530369392
In       13.38477038388968    0.43071921318555   14.14089049609629
In       11.96607941957585    3.74147337231095   13.30643144055024
P        12.80087559008620    2.49055443830682   15.29038752631711
P        13.27187226818921    5.10849879463441   11.61633625475505
P        15.44371608853177    4.90487726988211   14.97066569851344
P        14.15893899295541    1.19968851141745   11.97897943770859
In       11.70147795865573   -0.41130850584613   18.19487374617612
P        12.14251683125984    4.94503099126623   16.92379819438230
In       12.85622408445936    7.85268306635213    8.16966589325397
P        14.74263373258241    6.80090825136159    9.21714483827183
In       11.15810389891697    6.30047117045962   11.06978324854132
In       13.13786230875951    9.62062618073844   11.85023284299335
In       14.09244067779774    6.41376688828537   13.60310683556498
In        9.81883976497528    8.26443072411892   13.57923061028906
P        11.87040870743549    7.14347021780683   14.34702671827046
P        10.75087418675721    9.97760699023521   12.05546560501572
P        15.10584295760126    8.40249802621158   12.54651319903033
In       11.55088691245374    7.00035511227176   18.03516278201383
