82
 energy: -5.476070319976 gnorm: 0.000488924965 xtb: 6.4.1 (afa7bdf)
In        6.27520894709187    2.97116630265198   10.22156696076780
In        6.21635433254006    7.31273603604260    9.67140042131613
P         7.31895145031955    5.20922202805635   10.19641386900989
P         6.95918275628522    0.88757202261799   11.30324225280528
In        6.04226524673932    2.29495352485564   16.34921918132161
In        5.87306398081647    6.60596374757144   15.53647136970891
In        4.22016388807820    3.83788463888130   13.32180947381841
P         5.27343351944971    1.78010605573999   14.07498171217761
P         5.27430591638375    6.02190080009363   13.25452088502132
P         7.06090561511090    4.56593298302400   16.24086286941351
P         6.91583300715079    0.23526577665321   17.37244192632054
In        6.49975003847213    1.63997035289910   22.34901550393337
In        5.84556642348397    5.72557204685471   21.71460812437361
P         5.35501891524570    1.20678816262334   20.25161466057264
P         7.43692362284585    3.94113984643045   22.17973207397856
P         7.61641137640436   -0.43716590176987   23.04258172738031
P        12.04206224028474    5.29496178697288    4.73136414709798
In        8.07631527961394    0.18456797444636    9.24384084589012
In        9.62320976294611    2.91135402743805   10.74813372012774
In       10.13489860296746    7.47007798416070    9.85861540224895
In        8.48086309493195    4.65674011651309    8.06611338592219
P         9.09823120316946    2.27419415177189    8.41723399026999
P         9.57015148308555    6.80807785949437    7.59631229517364
P        10.68069949877551    5.14749171598537   10.47891535727961
P        10.35740389844892    0.72616234257591   11.62471033287911
In        7.81295107463287   -0.52158092094518   15.23279705215852
In        9.48589394235092    2.23627618884499   16.45033034296763
In        9.52457957275108    6.78549190339302   15.23091881958542
In        7.83685532037774    3.95953172268722   13.96265249771384
P         8.58136075077735    1.60040301325911   14.23306422083881
P         8.68389224968571    6.08499754049811   13.05291559078093
P        10.20930752971820    4.61379135602105   16.19471772565982
P        10.36253540238631    0.13037609925272   17.39350959067508
In        8.20369214427247   -1.19056426084962   20.80838106018506
In        9.98890661878738    1.79497764673386   22.21714422279377
In        9.64866208506461    6.20451260066772   20.99052911046556
In        7.98209772236101    3.35707198654941   19.83038678700246
P         8.89092638353310    1.06703325306920   20.11129644836421
P         8.59352388324597    5.54490714444453   18.89126976353468
P        10.73468517404012    4.14956876135674   21.83233908032287
P        11.15071676111061   -0.28668737111701   22.85379494025155
In       11.51256455540862    0.13385880303139    9.54772420021273
In       13.09887479686896    2.75812010980006   11.10307758588315
In       13.92736110572233    7.35510794568356    9.92199269465376
In       11.91040781897373    4.42495088336518    8.44292310262154
P        12.77614972431811    2.10210400884077    8.73541414574877
P        13.11653666564333    6.48091855355073    7.80417441044110
P        14.02864182231608    5.05916093106491   10.81750124007665
P        13.70761867968127    0.56083881993138   12.07621040223430
In       11.31412126822044   -0.59566175243100   15.26763352269840
In       12.91130506178710    2.29880840228276   16.54322995282912
In       13.28637010579464    6.91721266705749   15.26942744051797
In       11.24297557980358    3.99744582592853   14.02618400349339
P        11.92375624630798    1.62511474427358   14.36968189542124
P        12.23190490152700    6.11400859429113   13.22815462668714
P        13.64868114876641    4.63918238091644   16.13676417236406
P        13.88744052864047    0.19018087484266   17.34897449014190
In       12.08034194872774   -1.10715767957680   20.76414839865935
In       13.29948780148976    2.04509622718597   21.95927829383969
In       13.31098530858939    6.57590347724257   20.45154122260491
In       11.32836802897271    3.49919525406855   19.51776174152746
P        12.20672854213524    1.19284118282994   19.89332199118007
P        12.02918175273216    5.68410767296970   18.58952560258379
P        13.89388222362460    4.35623845829606   21.31904930690311
P        14.95142152396564    0.37191265557800   22.66635995201381
In       11.85392281220257    3.80051477037927   25.66884841424884
In       15.05279337832230   -0.30804252042716   10.23900536002052
In       18.04046806885209    2.17024452537930   10.70675407326253
In       15.31694233805980    4.23138533913836    8.85317491994878
P        15.84552122237355    1.95365354249056    9.67973089726849
P        17.22145868848607    5.74162576748002    8.88958270259954
In       15.08746813244172   -0.51644643046771   15.36271140786928
In       17.58761020859900    2.33987031376763   15.71746056952413
In       17.20966749610993    6.09932881926482   15.22706818991824
In       14.72229992086612    3.71554463387781   14.09870078652289
P        15.84979107859540    1.50521364060266   14.19428058996379
P        15.93883400555497    5.65627794283088   13.20768463169925
P        16.84126645763949    4.35123771683144   16.88622932635928
In       16.06994119862933    0.35872782871402   20.52079497497841
In       16.25256457814237    4.16820145989327   20.59586031699846
P        16.31336886993187    2.26766873836816   19.03383189094005
P        17.08045118941250    6.34128182425667   19.92055681044479
