144
 energy: -10.220493129171 gnorm: 0.000098376362 xtb: 6.4.1 (afa7bdf)
P        14.60950415001907   12.15866081483980    3.69753434102658
P        12.31154786251195    9.28994585571164    2.72490322580439
In       12.59028744610392   10.28352001732784    6.75591497722666
P        14.47973954762127   11.63148463655889    7.45235585198926
P        13.13390622978718    8.14217956618249    5.72078758965597
P        13.56423164861928   10.40762965396792   10.92234852974252
In       15.79250682286590    4.22961096298868    2.86484293620728
In       13.41044292519876    1.53168114457649    1.50061081543521
P        13.66293176782005    5.22425119969627    3.60301359521906
P        18.11321232102885    4.91367642974231    3.45240768534499
P        15.50967343264839    1.75751104819135    2.74020722852172
In       15.44902207814717    4.06495416249359    7.17820137557301
In       14.22373937433060    0.33266948489698    5.89705122905235
In       12.34757979428398    3.38094528542941    6.76487084110953
P        13.77022715711702    2.55665672375937    4.92584913053757
P        13.43199703855966    4.71309470909539    8.54623559322382
P        17.69498388542247    4.31600421135062    8.26081699786780
P        15.25367255799646    1.61795079865723    7.73166097984551
In       15.91673626703519    5.00544100101992   11.92078231633909
In       14.04186393635493    1.81503446421920   11.38184367456926
In       12.13896039865958    5.10452109604277   12.15939015891326
P        13.96335402775893    6.36356176648491   11.09768698860308
P        17.89710229763607    6.48925510878105   11.95616474134190
P        15.76262821645435    3.15716767864040   10.23377698721587
In       13.76553920565625    7.37266408048541    2.40137770366987
In       19.71494525690428    9.83679628728132    2.87635976622551
In       17.60997760758238    7.17031344007778    2.49416278862070
In       15.90310495646367   10.16141326612681    3.22000061349200
P        15.67004649435386    7.79527909466259    3.94000481096449
P        17.69808422540702   10.33547071403071    1.56079076027049
P        21.66743606392088    9.47081556019522    1.42164136164866
P        19.47113941738023    7.67692156649711    4.11956521026461
In       13.69847353443065    7.10054208098713    7.88053270065552
In       19.67167617755998    9.37056290701461    7.55899685433858
In       17.29475954591692    6.78658914768875    8.39484205652660
In       16.26018997395537    9.95703959103921    7.68819075174384
P        15.43063504512127    8.22492184998339    9.28138868365935
P        17.75416470506642    8.89017089608089    6.03330327175022
P        21.39673499382868    8.37955484526688    6.06848928653334
P        19.27263330914105    7.85819807746139    9.51630542928664
In       14.35477881276345    7.84975382629432   13.06166646309227
In       19.46898570637238   10.23356742379965   12.13993913428241
In       17.75982006148928    7.82168271916669   14.02918929792824
In       15.68328555999055   10.80415936191933   12.05762951966320
P        15.89773903033227    9.45186940735310   14.11553513017750
P        17.43671989790819    9.48026399274208   10.91236143219389
P        21.36199815368443    9.05287211270825   11.02870380515624
P        19.74968522379613    9.24170012171282   14.37694831964869
In       17.09259880326443    1.05952566279820    0.99391024180329
In       23.07427434939065    3.47443532390264    1.38172805493644
In       20.82611163879019    0.59374345860451    1.46493376770767
In       19.17444199783580    4.29132247006442    1.27051420748401
P        19.22685204307902    2.01699145611986    0.27578518692261
P        21.08346985131038    3.92152611495072    2.83545158491124
P        25.15591604478162    3.82601119270385    2.73473493107907
P        23.14091024958768    1.08475031374724    2.11185843979497
In       17.53031331260003    1.42890517968168    6.73282901754477
In       23.24874727347392    4.55913003812334    6.47886234988542
In       21.25796556696193    1.73559462139302    5.79438085815912
In       19.47626362417409    4.56525508193857    6.51036737047222
P        19.01715115348732    2.54320129126573    5.09822436130194
P        21.38017805642888    4.01692708239514    8.07198211668138
P        25.11286249809026    3.92989866843812    8.06439386925689
P        23.12355645315453    2.89408623799442    4.59358418416502
In       17.70644498291426    2.05625024125645   11.37743374200126
In       23.32014208081774    4.87635210351599   11.64177910161632
In       21.41062734304088    1.92401519522008   11.37312611734239
In       19.77079383169164    4.91684194982908   11.60124227160014
P        19.58236335804308    2.97653508643863   10.03710799481158
P        21.51864789016658    5.05893863618558   13.33780104552921
P        25.20569325223130    5.07888912369609   13.24350607337277
P        23.23109466291291    2.96038055746891   10.01620928541369
In       21.20352130905768    6.43104045620455    2.80650132294749
In       26.50113387267374    9.44285531896137    2.18305623283507
In       25.03927475496652    6.32888786258989    2.67910412478182
In       23.14293790944395    9.58558376253170    3.38148253544589
P        23.19023549353957    7.19235264754880    4.12000577181882
P        25.21702033376226   10.88224206458665    3.69773615279405
P        28.50676570397905    9.94274236215045    0.84470154263248
P        26.76984949700099    7.65700235685835    3.93886139030304
In       21.21020228392595    6.44556682758657    8.72955692696868
In       26.65904562125107    9.51529557256443    7.49783031712088
In       25.36543112621559    6.40874869809618    8.50344194392949
In       23.18411213264783    9.12226262128172    7.64213014074585
P        23.34832161107217    7.50412780818136    9.52564734887925
P        24.96095224097754    8.45221827795136    6.03238529268346
P        28.45494551885492    9.02673651007157    5.81998408330613
P        27.24072375592656    7.90757239727815    9.31934286148836
In       21.41825907291383    7.46068301363498   13.95363947077798
In       27.15973617042116   10.37469440156108   12.05034982314926
In       25.28949052102191    7.45860644369929   13.92386332875569
In       23.31896634049586    9.97857016288520   12.25855135321057
P        23.36143250002954    8.89910126954541   14.47254994143082
P        25.28351117462101    9.12598218649707   11.00161700531907
P        29.08398062491253    9.57417624582506   10.68288856223047
P        27.09767901379794    9.12561345556349   14.17390661645140
In       25.36909146688985    0.60130305478421    1.20434658638347
In       30.25898797548606    4.69924277692670    4.46853035599269
In       29.13022818423430    1.31084942537028    2.28732745122305
In       27.06172323944055    4.13427601248383    1.15059995974891
P        27.43776364765015    1.74966582856026    0.57218915653170
P        28.03987312131759    4.77001450792811    3.35753998048179
P        32.12106998574401    5.74499043383263    3.27929358066667
P        30.28925863007450    2.20595390085623    4.26699432644777
In       24.93749451570698    1.66254625162897    5.79010260908635
In       30.79604739757672    3.22156700090574    7.47929748532354
In       28.27740686604335    0.57516465980920    6.90279737862989
In       27.05631546961185    4.22281873477237    6.50323871852162
P        27.31772833555100    2.09048863953519    5.21045368633617
P        28.77176754655421    4.41711539499904    8.31444242846515
P        32.65468376264808    4.50129752666621    8.53770856855970
P        30.13849878022303    1.00951095767758    8.44896481781923
In       25.03565954466548    1.88875858835960   11.37046318873071
In       30.85245664209580    5.05564791848218   12.10723391100613
In       28.57982251848502    2.12106901551209   11.75544644347914
In       26.85457944375208    5.04374157523418   11.41137612182992
P        26.90640092677735    2.92749498941398   10.09531071050040
P        28.93040433680796    6.40031602941635   11.30328267607232
P        32.64517513132986    6.35185246047196   10.89186729945780
P        30.58828053619598    3.05672355809123   10.61301444402515
In       28.66712119538910    6.99423105286890    2.41363037945301
In       32.00848947589056    7.84415751737004    2.00771614621813
In       29.64233929890146   10.66339278671960    2.89345349390867
P        30.28136336458503    8.40220165340259    3.71240863978319
P        28.14006395997077   12.17127684697047    4.07211305026811
P        33.60852374386886    9.57198152839103    2.60851464868636
In       29.10460736363570    6.85558365769665    8.00137135458400
In       33.83172036465687    9.94688313671894    6.73284253236106
In       32.52655643528171    6.78743163283966    7.54035752045678
In       30.09743353254200    9.96822188153355    7.43141550669742
P        31.01501797879522    8.19217653114166    8.93699675506614
P        31.91267238986559   11.43062231680896    6.65846760224910
P        33.06822387790028    8.00679930590199    5.46818319332022
In       28.99016771483475    7.72493948485780   13.41120823457866
In       32.59719874761868    8.08269284867236   12.66484170165421
In       30.73042343605200   10.92608981695185   11.94638321299209
P        30.83390977255950    9.32770634436081   13.82778729390909
P        32.79061517935454   11.05132370903268   10.67063611882531
In       32.64110575697398    2.04914496233360    3.61355341205634
In       32.17973404857552   -0.15107663799231    7.73539318521068
In       34.58029064844854    3.53077657595465    7.36600454945494
P        34.12626412192598    1.16293246007344    7.16188896385470
In       32.25594777602070    1.67462114640678   11.78399663747740
In       34.52085143457879    5.03860513057166   11.78343077570142
