42
 energy: -2.773629960737 gnorm: 0.003164418786 xtb: 6.4.1 (afa7bdf)
In        4.85854690445078    6.40410887497277    3.23571100323465
P         4.68190863498299    8.83841843124999    3.23470725319464
P         7.14335428848000    5.87080736438860    3.86979435789160
In        6.12934404027393    4.34590187447524    8.73126822078111
P         4.23966381271887    5.83781275918430    8.49115156782844
P         8.11163352101066    5.53023842222890    8.02201519976312
In        8.43041655074639    4.62048669631471   13.28981675530845
P         6.72984611259028    6.18772819297964   14.01953339407372
P         9.95600879343744    5.19065901117900   11.49618309095229
In        5.88704810757125    9.18114019560275    1.14576728585095
In       10.69964578343851   10.81412832816936    2.84023393564478
In        8.76190024661400    7.39736467040062    2.81407416640867
In        9.75484661770484    9.04958362419529   -0.36479086878237
P         7.85074496130302    7.84226144738997    0.57119386849877
P         9.90130888999593   11.30604225630554    0.56161886686752
P        11.14462142226562   12.99437617051730    3.88887483447435
P         8.86056071629655    9.59142201994606    3.95193998001111
In        4.91976845883390    7.58067435740105    6.94845248391973
In       10.21492632644407   10.77688046929711    7.19144911651593
In        8.55275217289165    7.76412863111231    7.11194444145281
In        6.66380462165918   10.79276295720656    6.47804723309564
P         6.75216559924203    8.48015717838239    5.53659066435825
P         8.69830156909023   11.93448321126522    5.58334153465650
P        11.89950715080868   12.37289979255218    7.96795274503900
P         8.65770318928470    9.63024405695517    8.74274644756832
In        5.44824944899728    7.12028172314825   12.17222381499925
In        9.84654283355547   10.50304684389079   12.57399346266914
In        9.00339922847397    7.44496552896950   11.29842171658931
In        6.49073997489763   10.71885808225362   11.17328091664909
P         6.81945136166193    8.35063637828636   10.54229616247759
P         8.69097899013026   11.76381327070715   10.74559652889686
P        11.80365933545193    9.71957373356395   11.30435259303291
P         8.50861542945403    8.60133449274191   13.40060849036984
In        7.77197834963743   12.34825140842688    1.15255141281642
In        9.46422023163190   14.66352481735710    3.33887906389883
P         7.33742934356583   13.47195917172896    3.27018185984106
In        8.47912493628912   13.93902586540441    7.03518437429323
In       11.94979032893190   14.77394341278043    8.27107970251938
P         9.66517865909922   15.57304387473184    8.38281257845284
In        8.88443420604294   13.77514078312954   12.16061426486664
In       12.85336669433756   11.89360115696007   11.56779385048175
P        11.29475668409541   13.55096702165241   12.41665162855089
