56
 energy: -3.475822404975 gnorm: 0.000134951663 xtb: 6.4.1 (afa7bdf)
P         9.28674710968447    4.86349349695205    2.68813648935690
In        6.32151386883190    5.11630871839130    7.10407949461381
In        2.66491393471033    5.11795870561291    6.84269679774088
P         4.55551233719519    6.18446661603060    5.71902614938467
P         6.22241623701616    6.99047631355666    8.73190254192191
P         5.58139074577460    3.01721138189752    8.08488629867032
In        6.94151478854427    4.59487403324196   11.16853925184650
In        3.38047330437765    3.98603391988865   12.04881947155785
P         4.68003806444418    5.46830353117365   10.60610284985368
P         7.27439096334874    6.09531120224900   13.07950124377090
P         7.01520992417611    2.31223779076108   11.97996205121864
P         9.73475865539597    4.37671391543887   15.48209450362630
In        5.50162365717821    6.39366638902911    2.20119698704128
In       10.83036531299475   10.10873032282536    4.75732983583108
In        8.79532614041753    6.05665177156882    4.73978445957647
In        8.45763119961533    8.68951128046027    2.74030660827206
P         6.78002987886264    7.36589711275779    4.04128221296686
P         8.48355356777739   10.71797457416315    4.18326674495674
P        12.65235758521512   11.68548743369320    4.42325248704749
P        10.55935264836868    7.70791509165527    5.17063802623658
In        4.15221241186073    8.48565893972968    6.55457967158404
In        9.47754242260852   11.63796384412532    7.61347171972141
In        7.55056685721250    8.52605844688770    7.28851212844121
In        5.66517856918597   11.87493299225951    6.78353737254208
P         6.09896746719701    9.71932255230601    5.64339200326461
P         7.81899345822463   12.99005280171130    6.35340948971554
P         9.89693679779138   13.43195976010582    9.28605483949890
P         7.84503578995618   10.33489690930564    8.96933618342787
In        4.34323354378472    7.60152171527323   11.83712635091299
In        9.89416592320691   11.24413489683690   11.97089250936820
In        8.04718075846287    7.99645709669741   11.69751946464108
In        6.02561061919052   11.10754111968544   12.11154932165476
P         6.00888391286440    9.05080304181091   10.69800194082639
P         7.87576258912758   12.33452087247227   10.97848768771342
P        10.93017667176576   12.79862367202687   13.59789000855952
P         8.82326257392564    9.56892667373213   13.45748505014002
In        6.47116625666459    6.32851157808513   16.89903358768388
In       11.61767776997816    9.89329268657797   15.70723941958545
In        9.89583506468604    6.79816733388968   15.49708461420717
In        8.15472450404513    9.67212034441368   17.03026944737398
P         7.64051160882041    7.86848554405228   15.39154570168044
P         9.51336445897230   11.23762743362151   15.64854823874926
P        13.56870149312656   11.30818856424773   15.98867261306664
P        11.14968855544092    8.01806272731071   17.21067748066821
In        8.32151752436178   12.50874534687012    2.54233942592530
In        8.60986525178773   15.31379043013875    6.59605468045790
In       11.74457407307301   14.32376644293749    7.88903239019495
In       11.70493062362681   15.58368582547283    4.11337206914764
P        10.58050175214208   14.11966229038680    5.70550149690379
P        12.14963849305685   16.60879271038155    8.60430783349454
In        8.17022027452345   14.29488998091010   12.48016356834641
In       12.06152673827681   14.17218838149322   11.90374429557274
In       10.26286542760914   17.30295106711170   12.88830004647332
P        10.02277206819217   15.46295770709889   11.30100359701158
P        13.83823340513886   15.51187736481570   12.86265037461242
In       10.09851373741462   12.84854204971807   17.40176887137389
