70
 energy: -4.708952015016 gnorm: 0.000651986824 xtb: 6.4.1 (afa7bdf)
P        12.06171003625123    4.19710699982353    8.17376402534353
In       15.55488778367650    2.16332569949689    3.03739740435335
In       14.36773230275263   -1.24241692396632    3.44068143431446
In       12.61452726557106    0.95210500295289    1.10974502884175
P        12.82797088315966    0.66554655495698    3.53097542766315
P        15.02725604646542    1.24817727254545    0.82610276343288
P        17.07817659644317    3.91437185118496    3.84457000449230
P        16.36257478773384    0.05405363709509    4.08235076018367
In       11.36053955651521   -0.01396904135999    6.97524532657946
In       16.66378899127315    3.80615461175559    8.76682176316458
In       14.45227340257247    1.09625814954016    8.71214939899552
In       13.26547582210528    3.28091584040392    6.28338420309847
P        13.58320932896154    0.82176392595431    6.41375062709421
P        15.59234150476755    3.97065184023953    6.57406331615814
P        18.44297915852497    5.35172845244392    8.05446329703123
P        16.82007691030400    1.40113240356142    9.42638327625367
In       17.42276908400567    3.99115391013631   13.80384615060697
In       14.06768137939430    2.36530535713751   13.14785468980229
In       14.43603717443760    5.42879016718649   11.21638850702578
P        13.20008034707690    3.33275592326786   11.08970539966556
P        16.56742480681818    5.74439866112606   12.32837763032242
P        19.87562354760426    3.81445981338402   13.65520895014737
P        16.41920347189934    2.16401574176278   12.47622263031451
In       18.01923600487194   -0.30338073805668    2.29047513925907
In       21.80970742009902    4.08367562157981    1.60580070500762
In       20.33567009382794    1.39742157407604   -0.06581231573628
In       18.36994244227372    3.58536696030018    1.75942138677657
P        17.93849903889306    1.44053077824420    0.54713997545504
P        20.28993658419798    2.90665764244044    3.19308495277908
P        23.41419034530530    4.39419345873393    3.45061528421115
P        22.63682566582528    2.19212939885249    0.25033289204650
In       17.40650047649289    0.62122057029062    7.14686815391673
In       22.64207846689806    3.73552474517647    6.80389218433249
In       20.65554774831671    0.18325146178738    6.01609586704839
In       19.44715445081098    3.42495666120211    6.89822758385028
P        18.75387040973038    1.63614857160357    5.31174924321806
P        21.19396003085410    2.56601577769467    8.44765036421203
P        24.84262580948059    4.50523764882356    5.95712230544486
P        22.24725783839330    1.88646735653329    5.14654251101704
In       18.10647766932991    0.37967557042395   12.44125355835650
In       23.10281790348127    3.98070383511247   11.14535059890965
In       21.65548895777935    1.01498578996920   11.81730521781030
In       19.55976869361334    3.77872196062125   11.22205973983205
P        19.49693486693170    1.35066481321744   10.63498848600237
P        21.22970363161888    5.39628832716864   10.41788227610610
P        22.86594606908120    3.68104773981280   13.58001872772134
P        23.38926465807922    1.68423678977329   10.17432084656256
In       23.68508700148149    0.83274666615569    1.98866088090378
In       29.31298884413629    5.28524397315975    3.12417026205773
In       27.78819873654138    1.10357509826055    2.43765893296391
In       25.76405750949721    3.94193730817361    2.82208161270817
P        25.56759915684228    1.53048129906854    3.38999617092059
P        27.27099050377065    5.07062934789578    4.42831900732592
P        29.40229594727483    2.89249758220023    2.71582724671583
In       23.98559099102767    0.83175178380021    6.58996245554513
In       29.90667514814920    2.77136663885684    8.35354327614585
In       27.31928615405124    2.06223182608165    6.49143770320372
In       25.84654017471257    4.49034746626838    8.21898107763969
P        25.48138076336263    2.02614198329116    8.15977116260504
P        28.21644123660828    4.47727779284325    8.83651484278223
P        29.34798622145064    0.47730634968527    8.91178258476231
P        29.63747067264708    2.69245595017515    5.87930250472492
In       25.24926707501046    0.81196319466666   11.57319014786670
In       28.24472961567173    2.24055126203471   12.14662923120815
In       27.47361938510347   -0.63426498218601   14.14663836988168
In       25.32593145680134    3.54033700646616   13.75166709292353
P        25.74951416037141    1.10846801313737   13.96501323900546
P        26.58110403977616    3.96669269362905   11.68729301580071
P        28.37159330360576   -0.18702766743057   11.92709528940190
In       31.21338065133815    0.86618233432205    5.56952619377943
