74
 energy: -4.866974393137 gnorm: 0.000574816765 xtb: 6.4.1 (afa7bdf)
P         4.70232763929395    6.21483403506835    6.59557449723143
In        4.08536680116527    2.65437699712092    9.85254887837025
P         6.05843285711028    2.57428590072465   11.29368658530982
P         6.57379847102665   10.34214859556857    8.00711925984937
P         6.68794883076194    8.50106071811216    4.63702208363714
P         4.94537063545524    5.45391908327240   12.11605129282911
In        8.98508705412550    2.84377010706826    2.77777240429504
In        8.32628252876381    1.33782024780056    6.35121071922486
In        6.01083835429317    4.27539006642040    5.95686819977744
P         7.50635417364127    3.25077722475936    7.61389658191769
P         7.55148934847973    4.43050978751850    4.00365460575991
P        10.84891488606019    3.67407801604354    6.72004503412414
P         9.82652381204279    1.18228195326067    4.39533849977839
In        7.03544067601529    0.40797625851979   10.74695057208558
In        9.91411823907462    2.91529112807503   10.20709954225838
In       10.22515227082581    0.04067827580615   13.23532473224237
In        7.69359053033738    3.82126260436984   12.70461462868007
P         8.88877077829010    1.97905302094520   13.80217404370111
P         8.71121501876729    5.02144486323827   10.73466328068067
P        10.87851495449958    4.62918199936209   14.08816479894702
P        11.29631589242382    1.14767600904691   11.28473154973576
In        6.82391703100653    6.61763285811827    3.11844782639946
In        9.55340185724143    9.27435071126801    3.22435035964834
In        9.29600561497323    5.23529957295225    5.60924812957458
In        8.13923478545840    9.14245884064533    6.53420942012883
P         8.19768954459386    6.75252176714445    7.19684520820558
P         9.59892552323771   10.67654776003330    5.22721048014440
P        11.75037313547819    9.57588373226440    8.08131199402178
P        10.17577612785522    7.05862727528356    4.13334358163338
In        6.37115105600966    5.61199666973977   10.13019949763961
In        8.55295912250320    8.42868605175988   10.35931292228003
In       10.10377251774482    6.27008904660550   12.40234241995710
In        6.14380025387725    7.34231181318458   13.13632074974163
P         8.50437891042118    7.56160156418634   13.73708113356970
P         6.24597869468961    8.69333721269440   11.08901310852210
P         8.98360863791612   10.89796872989119   12.86775279573659
P        10.97095012163535    7.89178085950453   10.64750532352697
In       10.72873990778781   -1.02648159242232    3.86102444052784
In       15.23193446340173    3.39256677586421    2.17230161883304
In       15.92071671301979    1.20212120660530    5.14223888675763
In       11.99903428747275    2.24497566607404    5.08861900667152
P        13.80105264227540    1.08456436360049    6.30726729570356
P        13.16466401647932    3.76526898380868    3.47664563400331
P        15.91601990849172    4.07747172384367    7.42031204781081
P        16.89111741920766    3.14937258432642    3.98363653173780
In       11.52939969882507   -0.48037073977688    9.46067971856521
In       13.34017345960849    2.85982100140246    9.41551712139111
In       14.35503300819482   -0.18736914187846   12.37442050598237
In       12.17904327989462    2.90678949114412   12.87325627952832
P        13.60381246116500    1.32077096409688   14.12445231364507
P        12.55827890637644    4.56429798038051   11.04754147991239
P        14.76176305817300    4.89438156331047   13.86321292574550
P        14.97380028840174    1.41614574595064   10.59494853450121
In       11.82324671174403    5.73710150320796    2.85846961684736
In       14.72681301968185    8.33660070671722    3.68684665239685
In       14.48331256536030    4.58205340547676    5.46505980403007
In       11.35816113229292    8.18107745650465    6.06673932830576
P        12.84748462435167    6.22413106729778    6.26856809140223
P        12.67209262640942    9.43250186873742    4.38810756935838
P        14.94762295246350    8.45547052414857    7.34573137145236
P        15.86152676781607    6.20007947426756    4.16240957221160
In       11.44495903269831    5.88857534843293    9.26875153839175
In       14.31193489338957    9.80021745122483   10.93772272481655
In       13.23770504819692    6.40452081168076   12.63969905241022
In       11.07040617249468    9.69494502139183   12.41117774750894
P        12.10962274741480    8.12906820758091   14.02508416074695
P        12.30559958670609   11.16490842757301   10.83423939465558
P        14.04790694299943    7.38361664821908   10.48988670318219
In       17.90587078394641    4.13085059155043    6.01006617574221
In       17.22873597975697    1.16494822268638    9.67635721351315
In       15.46377229911481    3.25833500635020   12.20162145091273
In       16.75201238691751    7.24945543977972    6.25580140910198
P        18.42512081961990    8.78870856791878    5.38545924725815
In       16.35402020060584    6.57786381571373   10.39508009320802
