90
 energy: -5.994374037877 gnorm: 0.000199098997 xtb: 6.4.1 (afa7bdf)
In        3.72027614238338    8.13045259433547   10.60917703833459
P         1.37930029960137    7.83031703533993   14.30901515946552
In        4.55723025292292   11.52619843312480    6.43035312055797
In        4.15716592682114   15.13925552879463    6.01266601326180
In        1.90037955798574   12.50838304544758    4.00178614604671
P         2.95340991086037   10.52141409926144    4.90969308705214
P         3.15834561673665   14.59977759404347    3.82107243883958
P         2.98598688187220   13.26699264584092    7.17590992129837
In       -0.09858841291212    9.50929353950736    9.48949536383388
In        3.01200550294870   11.68280288947981   10.26864645129806
In        2.67230057773172   15.36758812531649    9.95430138918562
In       -0.25379597729057   13.23420273564927    8.85148463544637
P         1.26385696132550   11.29682279912030    8.54489352381061
P         1.07002232041074   15.17272501685138    8.04567886784843
P         1.95205678383087   13.55684038619920   11.50224698175479
P         2.53035269462082    9.83073903962324   11.85198943556218
In        0.28312349291519    9.87896518012831   14.94136707864598
In        3.23924735974889   11.93139010594103   14.50004455405790
In        2.70032664654989   15.47355662250991   14.40743954752705
In       -0.31246059259901   13.54186595401249   14.50105705350755
P         0.99329852124679   11.70791846845015   13.42762153486736
P         0.56057635818539   15.42421104020897   13.12475197905237
P         2.54398333107725   13.67141000377261   16.11581003966761
P         3.97733519081848    9.99477555669996   15.76670345639666
In        4.61672758274316   11.93771585182847   19.10952770584868
In        4.11472440669621   15.67560537087925   18.52646037182024
In        1.20861386567916   13.68199651311573   19.72801860278402
P         2.26533943504758   11.85065818618805   18.50716861442993
P         1.66069690168910   15.51289620155614   18.11388205950536
P         5.77605711932296   13.88961505908817   18.27401921614329
In        1.72364106641757   16.57170675007954    3.58777933916767
In        4.04992852746615   18.93472689331573    5.74872301560630
In        4.17933127645001   22.62332161712965    5.69655919287673
In        1.43166685601961   20.64972324607177    3.63693336605000
P         2.92347186150849   18.70676275377653    3.56586026018762
P         2.96795340315738   22.55475661088820    3.54897026995494
P         2.79257334179760   20.83930181891165    6.74211380810700
P         2.80053752303148   17.06296707422780    6.81564301722451
In       -0.44596040969019   17.06507353586000    8.62373516880131
In        2.59444268721571   19.03666905538850    9.79864000550767
In        2.80802255302029   22.70677539200375    9.84493696277867
In       -0.43352776620574   20.89452528469867    8.56155778676237
P         0.98380697914210   18.96849647249966    7.88397292102883
P         1.08302545357047   22.79183639413114    8.04944657664615
P         1.81335716508673   20.90684895159884   11.24111570045192
P         1.72663475276146   17.24154164860785   11.28593127834338
In       -0.58608444734836   17.29091436531391   14.31316806697544
In        2.60438702988084   19.13281901233330   14.33647252859441
In        2.85728820459622   22.93002878775511   14.32765348249968
In       -0.46569277094551   21.03983654116559   14.29265406803357
P         0.48965720514979   19.12488885058380   13.01288342324694
P         0.72444935489708   22.82553309003976   13.02403597869998
P         2.40280466305163   21.05928968015582   15.89210886276285
P         2.23573448001933   17.32946657809564   16.00357353069593
In        0.93220545866936   17.41533932437278   19.55195520036703
In        3.90634820965356   19.17007190122450   18.96071165888616
In        4.08461413285802   22.76053412937264   18.74183631975872
In        0.98397399528979   21.14850288690782   19.48287793805040
P         1.60279638811799   19.24471626681274   17.99472555150241
P         1.72056193128900   23.00063307453094   17.98606757487369
P         4.11704582696215   21.06456926645516   20.51414029454634
P         4.16836434982081   17.21415343810303   20.43193356325343
In        1.96116210558049   24.78803048937704    3.52621807376602
In        4.55128536796578   26.28223179944066    5.84909062350642
P         3.94682609135808   26.17905147773165    3.48667433687109
P         3.75443587653933   28.39008123686945    6.77080506577261
P         3.05061746331508   24.54999281480591    6.78196318047417
In       -0.11939686742805   24.76236648546085    8.96008047291604
In        3.26268628668996   26.25526402458248    9.86726806966024
In        2.47757927668780   30.55126126294422   11.32832467000017
In        0.20862989776753   28.34008688195842    9.24857499229556
P         1.46565192398471   26.51106920021434    8.16784432040727
P         0.13829974450971   29.87804114806860   11.12327642893679
P         3.51327317503761   28.35918685277515   11.09372211341731
P         2.13535959910318   24.59834071184261   11.32200724489062
In       -0.17698553949041   24.76417088169868   14.29471967114033
In        3.45638326266953   26.34582871241273   14.19998906834279
In        3.60385940561968   30.15399733848714   16.24930608122544
In        0.42543651553536   28.29865484456827   14.75807338396179
P         1.18878848534266   26.53771306391397   13.20959960500054
P         1.16101788443332   30.04600178044338   16.31159487628548
P         4.48323632026355   28.50392486986209   14.72219424421945
P         2.63702957723753   24.80836877399641   15.96101857698203
In        1.19116207322084   24.96902180848197   19.38616862564150
In        4.60407948690194   26.58176992150496   18.32145989144453
In        1.74258843657802   28.61652220765054   19.74056353805523
P         2.16538336008890   26.85220920069444   18.09953367366844
P         4.88407024516698   24.76798033347010   19.89797027444134
P         3.57601137192997   32.20486148740426   12.71215025952344
In        0.38591273170012   32.14417407462569   15.37241053708735
