112
 energy: -7.354708810386 gnorm: 0.000125887693 xtb: 6.4.1 (afa7bdf)
In        3.96852296050292    8.17621676147367   11.22755087598072
In        3.10272564623182    7.93256570278966   15.66288894552324
P         1.14589303244667    7.65292092817519   14.25173636341901
P         1.39611570091892    7.71130965986637   19.62470990855105
In        3.22973226502436   12.81921925180926    5.81954188517302
In        5.44232218577717   15.35991590484221    7.52537944746228
P         5.70185145391343   15.52165045131403    5.10649069783992
P         4.02937373921081   13.38224102583675    8.03667022572871
In        0.46143682054932    9.51881506989360    9.45312997890739
In        3.28210430121607   11.71528237660980   11.04730580385723
In        3.01298930200676   15.36638382860263   11.05759108528671
In        0.45248243091867   13.21039536360383    9.41217834711508
P         2.01265744463176   11.33036852295536    8.94557929781282
P         1.86501293058956   15.17022620729585    8.85827826985095
P         1.98855770661801   13.45010308190306   12.27085405978975
P         2.50606952901784    9.74577989031667   12.35630527252554
In       -0.43676170269637    9.43777776605448   14.75970724418391
In        2.48701028882686   11.51116466314449   15.42747771855982
In        2.24386002049313   15.25486887256184   15.26647427381830
In       -0.85184990297695   13.22079572015213   14.67976479601285
P         0.63037407549118   11.44152396021594   13.75283489120522
P         0.28286479129182   15.22146879860477   13.71761674687901
P         1.73664188262249   13.40709228009155   16.85346323752558
P         2.17131611947667    9.68705127787161   17.08796555670530
In        0.45247662550841    9.75463671402835   20.48475391876843
In        3.39368668655758   11.60320538497922   19.61225892379516
In        2.98937422806079   15.16835688443181   19.70405687679034
In       -0.06470943930838   13.44254943224258   20.15717047515500
P         0.99709240966932   11.57469759435213   18.89033692502716
P         0.70757781768095   15.30615973412326   18.69672310203590
P         2.98465999038400   13.30566995322065   21.34124695969282
P         4.35089503311366    9.69015649400129   20.75468588597536
In        4.77601110244376   15.27984087028138   23.81285835055505
In        1.79028867262338   13.52594138183757   25.05351173489744
P         3.02419168842611   11.48833472770767   24.75522850345527
P         2.32899892998521   15.29032840583335   23.39894960057585
In        3.68120793133568   16.73484796207164    4.54135779379778
In        5.08442256559636   19.04582079639772    7.17242861217094
In        4.85529766424248   22.69844036487610    7.01467289350067
In        2.80299651004983   20.80383314995678    4.52532883201984
P         4.47896227768843   19.03942976050745    4.78259125504079
P         3.77924753302902   23.03492417502957    4.81298212361339
P         3.48476020980682   20.81721544435136    7.88338279321651
P         3.75480533193655   17.11912402216357    8.00814139029172
In        0.18503198801916   16.92426889793446    9.39586096542040
In        2.79079374215802   19.04472830163437   10.97396618540049
In        2.90065847713291   22.68315409485076   10.96070764157195
In       -0.04292098486872   20.64943428520273    9.18254797279980
P         1.62986301831937   18.86030249530837    8.76740955007556
P         1.46193586698833   22.60833869228492    8.93039529763869
P         1.72738801147008   20.90704368236712   12.24191312358114
P         1.75387520156907   17.16303405496522   12.23305416579344
In       -1.06335025147214   17.08733824887903   14.67750998605881
In        2.19626791768564   18.98779112289398   15.19602789568461
In        2.44892584132657   22.82212348423744   15.18858050477895
In       -0.99412709332884   20.96686799252638   14.69395855626366
P         0.18639694808830   19.01650375528268   13.70585639507934
P         0.32472545321856   22.90732865316691   13.87714551789371
P         1.85016843365576   20.94141012267027   16.68514745963169
P         1.62215358953166   17.14868376121339   16.75912225704832
In       -0.16690045459258   17.22459806296235   20.02267728523183
In        3.09600532102342   18.81892478709383   19.50136631288224
In        3.17386128740285   22.83600615525491   19.51706960518137
In       -0.01642472474290   20.98918877784583   20.05708546252622
P         0.76417928006784   19.08972786138590   18.64950461313483
P         0.82725128093249   22.86949239676816   18.66671561335729
P         3.57295185610088   20.81691926604397   20.86021093707375
P         2.82450809587041   17.09465916975809   21.26392533845948
In        1.69988833978610   17.27073086201537   24.77633990556157
In        4.87291674316786   19.17869151424499   23.87740635937392
In        4.91218490579068   23.01340887402732   23.73769725524143
In        2.04764098634190   20.95921936406948   24.80821386907358
P         2.46711225170538   19.07257027907885   23.24913628913901
P         2.51302104886920   22.75291259524472   23.15385814716915
P         5.34337591339163   21.14753197260623   25.26026948277077
P         5.31136028509737   17.17778090117865   25.22087185400472
In        2.04138499159085   24.72345786856430    4.76500458157732
In        4.86288155215347   26.37127588545594    7.14946787272348
P         3.88195660728635   28.49382735376784    7.72038708347743
P         3.44688732927836   24.52984060616137    7.93755953567417
In       -0.01104131968233   24.45164614481992    9.70356720916528
In        3.18953739708773   26.36776561439712   10.91396610421408
In        2.18964537523230   30.33739687639284   10.86185550823189
In       -0.11789068696979   27.92651222169212   10.04506350082357
P         1.50450940389601   26.32743521554567    9.09095888948361
P        -0.23799155641013   30.06840021645863   11.20815217089095
P         2.95134051981409   28.43646030592889   12.22553137780331
P         2.01540995971135   24.62865569512137   12.22450593269841
In       -0.70787632975895   24.97674369857272   14.78137373070743
In        2.85133838662893   26.49332018264363   15.31274231553987
In        2.91346111495891   30.72531410492147   15.74326219667233
In        0.03395733119890   28.64049396338314   15.06521875010077
P         0.86068342171363   26.66049856759025   13.82867483877290
P         1.20464439244362   30.53216603301224   13.94958789436253
P         2.96782006068111   28.49324565151509   16.75144074726090
P         1.98372287047660   24.68445245041051   16.77665074754142
In       -0.01152978619750   24.87011797928374   19.88076894088308
In        3.66937740101198   26.37391177706031   19.40757608876481
In        4.16401389431966   30.37029902004291   19.87304414855636
In        0.75518127603454   28.54422517161236   20.18251727043212
P         1.28971777013033   26.63799067611826   18.70794357238341
P         1.77690282941238   30.63665733071177   19.40344229733977
P         4.81397330991495   28.16512300859037   20.61795931893146
P         3.18498971656310   24.69783129987684   21.13613541219530
In        1.59371848749788   24.52956989113162   24.60439656472507
In        2.94942814828179   28.92923037462719   24.09705157681782
P         1.78596912712306   26.84584753840324   23.91113596176350
P         5.40712129982725   25.32534395787200   24.27025439486745
P         3.33438553042002   32.42155713520192   11.36736161431564
In       -0.20722025515858   32.33696431242077   14.82427156267446
P         3.15360888893926   32.94073214130682   16.69220234847715
In        0.96437617391438   32.31160462606717   20.95885425417185
