      57
 i =      115, time =       57.500, E =     -2214.9261355772
  P        32.5431609297       27.5980119150       31.2293976503
 In        30.0769039542       25.4157051737       31.6984232011
  P        29.3424267775       27.7877312552       33.2637958035
 In        30.4191252985       30.4803645620       26.6840055627
 In        29.8778602904       28.5215194016       29.8400648876
 In        26.4069190014       29.5129618344       30.6653298019
  P        28.2312186651       27.3100930705       31.5205263304
  P        28.1752837087       30.9671074003       28.6289862356
  P        32.0418147329       29.6751312718       30.9172841545
  P        31.1260217534       28.1284650169       27.5160236881
 In        27.3264915913       29.2673217015       35.2297751387
 In        30.2079212141       30.5702062058       33.2222054411
 In        29.4671141253       26.9047941219       36.2987058925
 In        28.8622967801       30.6991265853       37.6354113832
  P        31.8467413539       29.2904478954       36.7149408029
  P        28.6671011683       31.7915132124       35.1859441633
  P        31.5933578613       31.0421127519       38.0766525276
  P        32.5095635865       29.7893089125       34.6289970494
 In        27.2137326612       33.5735229794       28.6935649509
 In        30.1530253625       34.5908550379       27.8028883325
 In        29.5368305870       31.9255727892       30.5755611387
 In        31.1583084152       35.3706843629       30.6245702990
  P        27.8137472485       34.3353607825       31.4664014624
  P        30.9558463982       36.9875444447       28.4510062549
  P        32.4062706781       37.1177023548       32.2350668186
  P        31.9691291903       32.9975239058       29.9576238692
 In        27.2987565677       31.9780102823       32.6469434548
 In        29.2179354425       34.2478437199       33.8482911612
 In        30.9447814679       32.8242947822       36.2703693318
 In        28.4186062645       35.2289540168       37.2890812286
  P        31.1700770513       35.2080378100       37.4721786986
  P        28.7269194570       36.5374330878       34.9016680711
  P        32.3155880645       36.5041079306       36.1566617142
  P        31.8618503111       33.2840222342       33.9969838444
 In        30.0087387859       38.5404821156       30.3467237121
 In        27.9063068350       37.0990342996       32.0405065657
 In        30.7785732363       38.1552945083       34.6497566387
  P        35.4523942231       28.9561771762       28.6580639224
  P        35.6660391392       31.7505592010       32.2641505478
 In        33.3126729237       26.4194216953       28.3537222989
 In        37.3930481215       30.0189228483       30.4339720291
 In        35.1005186886       28.1873518891       31.1749403091
 In        33.0419013105       29.6926160597       28.4499207100
 In        31.7828354357       26.9147888842       33.9056594417
 In        35.4677351554       29.4993975809       33.8559832049
 In        33.8659026562       27.4452503647       36.1153656551
 In        34.3372373752       30.8813498583       36.8332318067
 In        32.2701183803       32.5431761294       27.3007321902
 In        33.6682389634       35.2518856729       28.3401551006
 In        35.4011852974       31.9055495509       28.8616927510
 In        35.0494717285       34.3487228000       31.5015894160
 In        33.0551246873       31.9545152621       32.1861253822
 In        35.0253123809       33.0568333878       34.7674056631
 In        33.8567924822       35.1010599851       37.7274467456
 In        33.3066306214       35.4272733033       33.9695283845
 In        33.7843970159       38.0333504585       29.9594906535
 In        32.3786644641       39.8188040184       32.8294310302
