236
 energy: -17.251157139100 gnorm: 0.000140600453 xtb: 6.4.1 (afa7bdf)
In       11.36863847664361   10.65197117129663    2.47647231986563
P         9.49330786558652   11.95752489723568    3.41099635807548
P        12.62491728831952   12.48273160956346    3.57428057479868
P        12.01410187371200    8.74855948270520    3.90801682740211
In       11.73356537209892   11.47018436117082    7.21060905273473
In       10.13044900593892    8.19088688853337    7.30248047893484
In        8.15139562655546   11.24223005221897    6.88071380122443
P         9.71109820394907    9.87386384515522    5.54392570700686
P         9.75160850968625   12.75325658758475    8.02401399320787
P        13.00667421974994   13.13170505981112    8.54126057507678
P        11.92202022866159    9.37478879275406    8.54715081720065
In       11.81819488956690   12.13133263829841   12.33901892767238
In        9.80942949730281    8.82176624763670   11.82147920016961
In        8.18830121533281   12.00511869752485   11.52012768337879
P         9.75589413950568   10.65830737498957   10.17605106815181
P         9.75308257668488   13.43360774286037   12.80484513768773
P        13.51288691564924   13.57925132694697   13.47495050311970
P        11.58488145835756    9.81877430056297   13.21510005635108
In       11.83850936042849   12.71729169382884   16.94368405050975
In        9.69874520073626    9.48712066316269   16.60095175375968
In        8.45178741341996   12.78623867091486   16.58148404342734
P         9.65887678654845   11.33849831874956   14.97552061021456
P        10.08207083738881   14.33086334317675   17.66484272602133
P        13.70987124984015   13.85457100881179   18.15822797417893
P        11.73409301705152   10.34372740014449   17.68229310836498
In       11.45331624770228   13.27021442178555   22.87517117820344
P        10.71047664153638   13.65603671374318   20.56115295631933
P        13.40332963729766   14.79514077988558   23.00051911908408
P        12.10601528019529   10.95035078942199   23.34166994533957
In        9.59091122786397   13.76569633796819    1.78288805329271
In       15.44925616663504   17.14355737465186    1.36998241114489
In       13.52534354927668   13.88686122440463    1.73850331908702
In       11.73226020434753   17.18476492763131    0.89590432948828
P        11.49760059950650   14.76180874039324    0.61214010841561
P        13.62292678885860   18.74353693221641    0.83516830465180
P        16.84285274647303   18.13892733790990    3.19745046519878
P        14.11942464287519   15.89571559846812    3.09818289278514
In       10.08747187550146   14.61360914665387    6.43732925616289
In       15.82769416478577   17.26431021066641    6.18167193982566
In       13.83194962517112   14.33027152034565    6.51309416762134
In       12.05017567142511   17.69577358518109    5.57828856483794
P        12.03393445655283   15.26116838480754    5.03889031178746
P        14.23101609167548   18.35090924091356    4.57713500351965
P        16.95924419710710   18.41720829432676    8.07964660478082
P        14.37632619659652   16.28634749782672    7.96877856912000
In       10.16486407252370   15.19491991687918   11.12971856812543
In       15.98588589690208   17.63713938287593   11.02512635367892
In       13.97088227567704   14.71691664134455   11.29222072810700
In       12.12060179615325   18.17147896577448   10.43308804160445
P        12.20733513352066   15.75324334621554    9.83067539511852
P        14.34306413717415   18.74212111175467    9.47878723958375
P        17.18012595699332   18.54376691935146   13.01102095618558
P        14.55357823406220   16.61868652608989   12.79929922457122
In       10.07107144788246   15.55551662074110   15.53001444062448
In       16.32235058177633   18.22202516924685   15.94884252319495
In       13.77978740701980   15.62942089375619   16.40217267277281
In       12.09314021540981   18.53154831143074   14.84157446657023
P        12.24800721033204   16.07293129034894   14.45857168701982
P        14.49655284254922   19.02199991746564   14.41232457271523
P        18.53502827359463   19.48880616864881   15.98632729489638
P        15.39854114411553   16.89684895883328   17.84093048593488
In       10.45050951634476   16.08592013945952   20.68768835276153
In       17.02386750901969   18.38142225357804   20.42774107275612
In       14.13452504113778   16.47759920728320   21.33953005547286
In       12.60508580461175   18.81532695903335   18.85053072955003
P        12.54270256064630   16.41333312032480   19.42004681245971
P        14.86915005209281   19.37220178441822   19.65536688121608
P        19.05924266027045   19.55845793861765   21.32546851814095
P        16.50299762553525   15.96692753504824   20.76971902434067
In       14.83599654777702   20.39529954900063   -0.50061316943018
In       17.83940361465343   23.76265195388260    3.24753861681322
In       16.58078784371365   20.57747526967655    2.74669794416826
In       14.23311925852038   23.45927937626620    2.32420612157177
P        15.77956627847329   22.11227233867786    0.97749395401675
P        15.63834047342402   24.65988106800337    3.91310433919549
P        19.71000931105472   25.21498449673642    3.93395862483375
P        18.12746733536751   21.58425546740844    4.41329977627832
In       14.33300172456867   20.67469250111853    5.47870441218338
In       17.97408890760815   23.90138235466631    8.30992250293563
In       16.60894616171904   20.86410343009742    7.87452229715801
In       14.30179538721770   23.57372386774056    7.62203573694651
P        15.95034407293110   22.48982665650617    6.10493586603599
P        15.81908495811169   24.87465917066733    9.09915237499466
P        19.85026342289363   25.39081878796428    8.96696668328671
P        18.26059081228074   21.73486174230333    9.50527557104925
In       14.30079979404898   21.04064042453475   10.46342142433983
In       18.15094943061283   24.01287566855523   13.14739699554508
In       16.66984030413292   20.97206395028373   12.77905233174329
In       14.48085763335912   23.80699704120069   12.71394798172671
P        16.05373299847971   22.72739212679931   11.11177645580769
P        16.09846053355307   24.98351578503922   14.18189571689990
P        20.25285512695247   25.09876575759961   13.92073732161576
P        18.39436976286168   21.83205131592394   14.35710353136520
In       14.52324183119704   21.22729098882595   15.58496787283711
In       18.72915646633318   23.85885431671256   18.22750973607406
In       17.25978048138721   20.87677206313769   17.66514574591715
In       14.94217472127829   23.77107202116854   17.90710256155594
P        16.42595661269760   22.74670694538646   16.19791654531653
P        16.69314063528337   24.83104530681494   19.28248888021817
P        20.84692909454821   24.97789800809771   18.86629678988651
P        18.84311989947674   21.68059806201013   19.44002199980413
In       14.49528954493373   21.34364924111146   21.08527684375935
In       19.77046995036527   24.00884156337025   24.55531294894082
In       17.52451786427543   20.74366194947655   22.92411553912050
In       16.51254627572450   24.36595898437137   22.86734704007069
P        16.69329309857577   22.46315119008828   21.30015163250675
P        18.88628849796687   24.49001329454888   22.31802422938530
P        22.22545276317808   24.02580990813330   24.57036032601234
P        18.71006512465676   21.77972612089299   24.84130280664116
In       15.77787610845284   26.68151530233230    7.40603928820636
In       19.25595271788214   27.12412868424345    7.30515198096937
P        17.57659099397000   26.08464912038443    5.83436538645672
In       16.10230459245834   26.85913079729120   12.56725383456016
In       19.64277219367156   27.02367277549790   12.46435787175545
P        17.85519726519598   26.26959280807370   10.93583492714657
In       16.84425867524978   26.76036827779496   17.74613452312307
In       20.33769733980384   26.90676615275822   17.41939161843907
P        18.47067179250102   26.12816219551249   16.01064531294075
In       14.02478960315443    4.95636763774322    7.28152719140918
P        13.06349160551760    6.62363516750174    5.78717343349070
P        16.14854058078794    6.03892514188358    7.73704538463037
In       13.50878245172181    5.25987125417991   11.67069954100305
P        12.65305341473266    7.08376319148027   10.29619730425656
P        15.73992440278621    6.22089233856429   11.74519042899098
In       13.37185340639549    5.52845438524989   16.21113931121520
P        12.44839042740231    7.39019162489171   14.93996528638623
P        15.59277984653623    6.40311166675980   15.74931120083698
In       13.85742535559555    7.85300456156151    2.58320379558558
In       18.31208915390688   12.26808498051440    3.06532933641166
In       15.81817114443805   10.67148355183948    0.52131134902061
In       14.81893803736155   11.41222771275971    3.94664107177625
P        15.67074914543089    9.49173610271425    2.65485107487879
P        16.68846888494158   12.74675083100773    4.91150928510435
P        19.93472870709466   14.03163604143024    3.71944137729789
P        16.91112220232829   12.77989911388664    1.09864291152427
In       13.83973907085779    8.49421825048762    7.19796697781667
In       18.32525871338014   11.86701442067086    7.86129888848165
In       17.26137868574511    8.22278944656377    7.69986932891403
In       14.97943653293744   11.62567388923735    8.47138102413396
P        15.39519465649724    9.22475681485377    9.00289499545603
P        16.83805421318302   12.83514897675764    9.61888936501428
P        18.87667311934928   13.85130734089849    6.48191010077077
P        17.10821606313439   10.29887984484330    6.37521876377039
In       13.44851881136266    8.79040258615283   11.89453390354667
In       18.49860564178415   11.79069495398055   12.51881026341132
In       17.01303703874500    8.24363101329159   12.28357461000963
In       15.09236487089800   11.76458572298487   12.86046139633037
P        15.20798665663477    9.37355332237610   13.57100555584882
P        16.93944661168114   12.86074328852317   14.15560556987334
P        18.97159296929699   13.82754511756908   11.17375340737940
P        17.14781114695364   10.35570693823681   10.99065555853839
In       13.46473508505237    9.06395781172873   16.43673243963202
In       18.47385718151479   11.65516672439800   17.13912834729398
In       16.80399075625180    8.24830721653728   16.81405263824587
In       15.04629837987652   11.93445808390953   17.26987087057384
P        15.19055488619583    9.58359478258597   18.17039891245501
P        16.89341238459346   12.67105454959528   18.79269624057992
P        19.11611806262220   13.67927695321360   15.83342855301234
P        17.09472219035657   10.34786163799564   15.52381343570583
In       11.49608427572597   10.42562708173423   21.03656195447179
In       18.26179291466574   11.42395830479559   22.15562878850475
In       14.74729060045496    9.73522903804121   21.46741463181215
In       14.70666062155108   13.07710608349649   21.77571468535401
P        13.56054891325273   11.52982069766190   20.19342016673169
P        16.54576655402700   12.68930529576277   23.39117959009052
P        18.96973880467842   13.29175917943496   20.69210571676794
P        16.92216508042947   10.27328390485438   20.43478111731132
In       16.39797873969568   14.88356842853002    3.59982941193697
In       22.53084910822430   18.09328622591797    2.49949784479251
In       20.35839179736235   14.41389122538550    1.32260506976538
In       19.07511186627018   17.52152422644746    2.29127335453686
P        18.03879973149025   15.29010099240569    1.73428928641014
P        20.59392932057287   18.62028413915839    3.96010786182704
P        22.91465125417680   20.13302954838948    1.19749002031087
P        21.89401080209263   16.29269566985294    0.96736623368951
In       16.55735648147540   15.11834320398487    8.60655211174186
In       22.53329047431184   17.93983545640477    7.15972030327201
In       20.78374338272824   14.82981790088664    7.71306961790997
In       19.19795855645185   17.74273663347063    7.24344212107457
P        18.91760633995221   15.92310234470991    8.93985161509157
P        20.87010226218342   18.71940332081761    8.84323652124225
P        22.32836537982434   20.02971511030997    5.83030022783066
P        21.55050826608544   16.14328238022688    5.76688306011408
In       16.62961226640703   15.23320942787578   13.36054205633815
In       22.68121302357569   18.15219480846640   12.29782638497943
In       20.84193428981974   14.69247400078857   12.53002788653755
In       19.34805736927948   17.72840455625093   12.12170974174671
P        19.02822332153205   15.86628989239625   13.75000453694859
P        20.84089931243610   18.74968697623603   13.86787835458109
P        22.65862110993887   20.06477931063370   10.72490720101201
P        22.07669265644133   16.15605560348547   10.99686012889156
In       16.86717625605983   14.88248897255402   17.60847725030240
In       22.54895901798207   18.13732135918695   17.28610347069462
In       20.82968445948743   14.64276695814520   17.34056948556090
In       19.20989001839475   17.66947923470777   17.55754516053993
P        18.98669317111455   15.50437956518387   18.78894477529538
P        20.90969770827745   18.70608019752482   19.09526825170941
P        22.81697958213232   19.96584841945277   15.62357065050513
P        21.72457477027242   16.34312078942466   15.81425730902867
In       17.21787342879477   15.04253665489466   22.96035485028645
In       22.75483763654884   17.17894121745824   22.27707168236599
In       20.73638358158331   14.27448447802469   22.12118183976389
In       19.47718155328181   17.86906493588146   23.12967677808784
P        19.48128344904280   15.49253419019301   23.85970083202127
P        21.68804817174687   18.65534494865029   23.95224061031920
P        24.16005692373210   18.60329055634043   20.84710107468010
P        21.00954389318732   16.32552582421729   20.73781615034709
In       20.05791233016805   20.86077121584760    3.01146702021861
In       23.92309833618453   21.54731545764296    2.89324928825612
In       21.40839170693356   24.35289251409626    2.40263553430950
P        21.82627838985634   22.40032077666953    3.84553696333394
In       20.11343409407492   20.94965301429117    8.03825569019633
In       24.51802830327717   25.79758537856414    6.89116408656182
In       23.69510940499330   21.35679315014087    7.40586035867226
In       21.38727525728717   24.23660843299312    7.37290714198254
P        21.97932042403306   22.35884361580750    8.88135616722748
P        22.43679493893317   25.62908485415374    5.64754774457295
P        24.95109335756099   23.46156257064970    7.36865813845830
In       20.18800645702064   20.93937924286635   12.84485026755094
In       24.61362775542369   25.91196167350375   11.66576486506416
In       24.06378953347517   21.38830974126619   12.26821771823089
In       21.62300263808254   24.03987869117303   12.11496207528141
P        22.18231738470852   22.18059017851663   13.66631819668101
P        22.47847392832308   25.71000176061029   10.51734641070323
P        25.13145880225555   23.55401603767075   11.86696861555970
In       20.72226607819464   20.92954209006800   17.95582803402499
In       25.06556911541845   25.75024481851138   16.26669020052767
In       24.55444446083537   21.18323587908348   16.88830738776663
In       22.10675015140677   23.99368985408077   16.95902721256763
P        22.85840196546501   22.12069493531457   18.41004017240831
P        22.85939083222788   25.60160627444605   15.23625512235787
P        25.43493427483990   23.35036421562098   16.15524752975117
In       20.87952247145626   21.00534712673078   23.92073088727831
In       22.86327000365200   20.60851953375706   21.32831455526418
In       22.51672719637257   24.20884113325303   22.16403201574614
P        21.06067914707230   22.26004541566645   21.77967179388169
