34
 energy: -1.877160928303 gnorm: 0.002016589092 xtb: 6.4.1 (afa7bdf)
P         8.54188275977478    6.41139730071439    7.29247070631314
P         4.26474600332561    2.21024333732974    3.47901708645076
In        7.06558900807624    2.83477163513056    6.56617625997411
In        5.01924022927647    0.08739066289436    7.04058257515278
In        3.35426103911110    3.45846220974258    7.01310981164514
P         4.68026097937236    2.03304139119150    8.52187968164263
P         5.47594555692343    4.66611914494414    7.03459569281510
P         8.58488313443720    1.98846523487725    8.36432325376945
P         6.78108794971555    0.64783753379311    5.41234849977716
In        6.75657035381529    3.34061599107638   10.80127207474780
In        4.83730837103109    0.39235688107525   12.00400438590585
In        3.99894011955950    4.24629436486123   12.78431077974118
P         4.86918348926251    2.16279378268346   13.67275577774689
P         4.59415659484756    4.47170300322781   10.43939973521762
P         7.84438079109901    2.84341818374072   12.93888295353480
P         6.59127320248393    0.88712261022225   10.33352590494585
In        6.14214270464256    4.69888380157856   16.75374614739793
P         9.00198779523648    1.55617457086043    3.02594264469032
In        8.77875994037011   -0.55383501561077    6.20008675553883
In       13.78860555450487    3.66859901998345    7.82260941009530
In       12.42121480448182    0.21234953702475    7.73617605786635
In       10.30943520598248    2.87845281178118    6.79863109954890
P        10.89370116072090    0.65684063612686    5.86665742989400
P        11.67433423281373    4.82120840425633    7.44581597446173
P        12.33131147723127    2.21390304421512    9.16988932062540
In        8.33806595083822   -0.24722746599407   11.68060825636490
In       13.47656877750745    3.71500296831308   12.72325318149760
In       11.87356546630885   -0.00461029252775   12.29268648663780
In       10.07427616501189    3.03167720170128   11.90631973625529
P        10.27342536528973    0.88695639084596   10.62179506085654
P        11.82781691599577    4.60049452106864   11.17706236709286
P        12.55237173777332    1.75979569470144   13.81906736368064
In        8.89174787617331    0.61244519837102   16.15855367933265
In       10.51039533379075    5.49323166210340   15.56748384882448
