80
 energy: -5.493734966750 gnorm: 0.000386718883 xtb: 6.4.1 (afa7bdf)
P        10.40744241958044    5.86270053638141    0.48512524098136
In        7.78054030180192    3.81653174646812    5.35309644455704
P         8.96647800518175    4.77370827165977    7.23594076193004
P         8.75830787900833    5.68043753035209   14.21295555695805
In       10.80363233519699   10.33749440875058    4.30788719164854
In        9.43565414138413    7.69658027424628    1.80306152086275
In        7.61604483032651   10.59910759778986    2.33567504497612
P         9.75081099526851   10.08328219319966    1.26695086126187
P         8.55922823580799   11.39741790967766    4.47831341758592
P        12.90035690664905   11.59316211270987    3.99195470102684
P        10.64045911934029    7.88741525321790    3.97518150926447
In        6.86912574867039    7.69190818831764    4.98040628954762
In       11.10239657065963   10.35844856106260    7.90763234898914
In        9.26099243714507    7.15890589730725    7.82482840891890
In        7.36002642308166   10.27571323925771    7.81244152658459
P         8.64098930615914    8.92904938246159    6.16353336026816
P         9.17009182982368   11.79952286761340    8.51991795979472
P        12.98610259679088   11.44758949717002    9.14426583184083
P        11.04454846786356    8.21929409713490    9.23132639444480
In       10.73931318580602   11.45485726429050   13.75126035576213
In        8.69199103407571    8.12247324882657   13.98104203878467
In        7.96002869282477   10.51096093450289   11.62200917373041
P         9.37009528753959    8.47386377937712   11.62298999884010
P        10.13208468548608   11.67210506169388   11.35802474796596
P        12.70602218392421   12.90215766423451   14.17400735481143
P        10.74167257430349    9.22535366477628   14.82237307155457
In        8.71647045672574   13.53694022902226    3.24953094015637
In       12.22504199102803   13.35190180777307    2.38715089915775
P        10.05295609524872   13.22114932237807    1.23817279003694
P        13.71116250649938   14.56874635624653    3.95107043423841
In        9.42843637175273   13.96627716729720    7.40165075109356
In       14.23905090221064   16.86515715994991    7.50879193494246
In       13.06832672100419   13.32965116219325    7.47118333890481
In       10.95880833171248   16.61066202398089    5.19555691722932
P        11.36873106224135   14.32299332409645    5.93409254626452
P        14.61101358051345   14.80539811983649    8.77970436569666
In        9.85639544946312   14.13174220558870   11.45468990192514
In       13.04450467004463   14.83470426840253   12.66774846831880
P        12.03460262142690   14.59413428020933   10.42983197550718
P        15.06272397262887   16.22861978878202   12.80824494814005
In       14.45606123278345    4.17630792085329    2.27712655413696
In       10.70499631323919    4.19001394090906    2.22067775692934
P        12.56142163786388    5.07836555323094    3.58970621275301
P        15.02537336591024    5.91205851192635    0.67678908982807
In       14.72949762640893    4.33147873452820    6.88570373407936
In       11.29261394200929    4.22878784591491    6.59179017546367
P        12.25185937271881    2.38341878657555    5.32374489785619
P        12.84643140249756    5.16261357565754    8.27650112508045
P        14.67078887297238    6.23870528787378    5.30626076633970
P        15.46144569569059    2.90022799292414    8.71230799169175
In       13.06137253231092    4.61627813243154   11.64184151881547
In        9.11389364699747    5.05354763846635   11.89844652693476
P        11.23212976372347    6.27279097029251   11.58313277337807
P        14.82231131745359    5.91420851933823   10.55012537793461
In       12.58568115405124    7.34037245822677    2.49960071634838
In       18.05870360124066   11.25319699292431    2.32723641532667
In       16.20198944935427    7.57320845536290    2.04528237051229
In       14.50041667708602   10.64289021041017    2.34665270834925
P        14.50277597516273    8.49098397331799    3.62482300788877
P        16.11403676961509   12.14269857203016    3.55981594615289
P        17.28241030935289    9.45141617671707    0.89973066053834
In       12.61529533779849    7.49160245003498    7.39296441443343
In       18.18401600385321   10.80080503777338    6.64015872397517
In       16.30847241914822    7.59696185797963    6.60830652073961
In       14.73003782831234   10.60040368708723    7.55145436806580
P        14.73886939660776    8.27212606604275    8.43806458165625
P        16.74582418482240   11.79369343024794    8.40479615983967
P        19.51317249958165    9.54092179524231    8.23529898085458
P        16.51425780162968    9.66099605084635    5.20899311603022
In       12.10901989396446    8.00400751635810   13.15736119885204
In       16.98647995933292   11.11374735089959   11.45024508423675
In       14.91084432787971    8.20008129700780   11.52045732467061
In       13.90938795744293   11.31959710854246   12.69586454864041
P        12.77985745133991    9.57036875682259   11.30575709807059
P        15.06553411288118   12.66983464757802   10.92266647763128
P        16.95854419547882    8.93904484500590   10.29989386053581
In       15.64819098380660   14.32083901254310    2.47407861987850
In       16.66671140832496   14.11703736478280    7.53860361027550
P        17.83599689129953   14.18914886824797    5.41597733351990
In       16.42190057855105   14.29124384533420   12.23574032811181
