66
 energy: -3.937925397331 gnorm: 0.000736609328 xtb: 6.4.1 (afa7bdf)
P         6.45848827496539    2.52246890659838    9.87343583650175
In        0.78672777283624    0.43930025298634   10.89632337062395
In        3.62066427113232    3.37132916907887   12.04684822378937
In        3.19423358399008    0.75178559018700   14.91851365257132
In        0.61232061157957    4.31053615901325   13.65144524723836
P         1.44321023036868    2.42342662897883   14.92012617070368
P         2.37145091964237    5.50463868335044   12.36495025492585
P         4.07503866422857    4.49510716761999   15.37699952996197
P         4.70539287093935    1.38952235945120   13.07109560269331
In       -0.03648127409693    0.15507523603212   18.27421372912868
In        3.13609682350511    2.83163006671429   18.73574926088466
In        3.83619525413643    0.97011342077900   21.50488965485214
In        1.28832661594381    4.16999752121165   21.28488968267435
P         3.38144633348429    3.27854307679324   22.16575945529427
P         2.13399521992956    5.07773741232239   19.10769996620629
P         5.94856879444546    5.34351765799135   21.42772847762314
P         5.07174616354154    1.40845050116758   19.36729079665750
In        1.92093737165642    5.87868738273640    9.98028182773173
In        2.87540701805540    9.25322068352921   11.62893270792604
In        3.70104525169666    6.62432752136045   14.18265210700141
In        0.52060656175113    7.86322555259283   15.06563478872134
P         2.58271069021924    7.39615271196836   16.28199112010353
P         0.95140040385063    8.24457103189043   12.71277276221570
P         3.02400836997533   10.84668669709317   15.08019856850524
P         4.88309941316101    8.16219486797618   12.57600371164781
In        0.04215997627250    4.91904049249129   17.81804303966538
In        3.45113953162514    9.47895213210141   18.92473339106278
In        3.83373247328364    6.28031004903919   20.53129408129212
In        0.75305064017995    8.01443029484025   21.46779380087097
P         2.57180307522610    6.84796490544585   22.58814458817123
P         1.45049468991945    8.06868625785109   19.13236809812542
P         5.46476825817728    8.70509597620041   22.25639133117523
P         4.91252875925944    7.49078926118632   18.58542731682535
In        5.72103728328565   -0.61288865139234   12.12027935065389
In        8.97458737262507    3.81865317554321   12.44650536554146
In        7.95732748292951    0.33988299569641   15.36387268126476
In        5.88775256310212    3.09745745215885   14.48395666859163
P         6.56287162134235    1.93073602684584   16.57221443569679
P         6.70314388146353    4.74529750505935   12.76864688156431
P         8.92298657502731    4.89381641667811   15.84338930667674
P         8.96713162516563    1.70469840242823   13.63358018452439
In        4.78865208303962   -0.80790832260633   18.33477377326881
In        9.41288404426163    1.87312815717849   18.87418882327749
In        7.25634626469485   -0.15044852212627   22.09905394172869
In        6.46290599696533    3.03010695132401   20.70306609728640
P         6.49944296075924    1.99784895368118   22.96400253830030
P         7.85202317390693    3.79831311114194   18.73582117991307
P         9.20643506134602    4.09042243291902   22.48980819589586
P         7.98768581917236    0.12862015896588   19.79755928732895
In        5.88189029905625    6.41636268774659   11.15384997143160
In        7.99139333377473    9.62242882841768   12.00595851755796
In        7.20858999427677    6.25674024874964   14.72303868603304
In        5.16083729885470    9.90836655164419   14.36107907168545
P         6.23681392640407    8.25480280981751   15.83313407238960
P         6.38587459521870   11.28982131053447   12.71897331422472
P         9.01330090851559   11.54021020995247   15.89728498324777
P         8.61248890575974    7.64106863879973   13.24370046689566
In        6.02465379194959    5.33407925385001   18.06725036113594
In        9.60877465310705    8.14478967214698   17.87335203104895
In        9.12720284370430    5.26612802349713   20.34544647651057
In        6.71087107674752    8.26954785290592   20.19127737122521
P         8.79973087860279    7.52547956023177   21.28514695182145
P         7.79255498146947    9.65374899007116   18.44176525682930
P         8.71795346093729   10.72866138766363   22.56780485726193
P        10.71389096217026    6.13359105983407   18.65218285725204
In        5.88480816550667    5.62007854215078   25.32269388858330
