44
 energy: -2.967854679401 gnorm: 0.002437079754 xtb: 6.4.1 (afa7bdf)
In       11.84589664604202   12.93526669677367    2.69849634919789
In       11.46757382905448    9.39728371440783    3.09739446263561
In        8.38654036454315   12.05677007058710    3.06633163742656
P         9.53146268567333   10.25849517430551    1.92141650604320
P         9.69557484495109   14.12748427867517    3.08305573918066
P        12.74556639700431   14.94095400882564    3.85737091400136
P        11.66012983352645   11.32600335990684    4.58018966244230
In       10.99352570408973   12.27038763718278    8.20463362718642
In        9.83236280697796    8.17485539559576    6.67683736850678
In        7.60493586754897   11.13098804567135    7.17739955571350
P         7.80096325471734    9.15211417735665    5.79008853176382
P         8.67077223110837   13.09900358124426    8.16354124318825
P        11.77161260158775   13.60582974663944    6.27422570898425
P        11.26162031370693    9.92797029781572    7.53395909306880
In        9.63576288928745   15.19638571504204    0.88051705050576
In       13.66014745466654   18.77822534545605    3.32453490472826
In       13.37882331976456   15.92264315733283    1.68397164100374
In       10.21954068751681   18.26640364948062    2.87970868211934
P        11.25811828637594   17.05225463671896    0.99917808597544
P        11.58364861640543   19.73400056098908    4.31752132817746
P        13.07276368804245   19.24490678064623    0.95902578437944
P        15.28364557978815   17.48274178728790    1.96850518539760
In        8.40525435115480   14.96486271545217    6.60243448026228
In       14.14210623574132   18.05006508005740    8.51069292754443
In       11.73378804363601   15.78207511690666    7.45082991063005
In        9.78534387637152   18.56190640256011    7.64223227122372
P         9.96190611388976   16.75953995345268    5.97515861511225
P        11.82483148332834   18.78836742466575    8.99521117200385
P        15.44935101521506   20.14214781094022    8.44107668659007
P        13.65807221624987   16.89856181275922    6.39691639573056
In       11.91462666691691   21.74208954786662    2.90300907643927
In       18.52041831617583   21.75201801602971    1.93780258692925
In       14.96739454350342   20.84811541178656    1.04754557396505
In       15.76054443159413   24.15342571396171    3.19804459049044
P        14.33936120836414   22.16133120212115    3.05258409307995
P        18.15663349313022   23.88704511939292    3.01810653851050
P        17.02358260525513   19.82740888885341    1.98109320297488
In       12.31089581268563   21.03077372822438    8.08542517858048
In       18.54664254069517   21.24722313312980    7.29498197921627
In       15.43019837819601   20.17271255505131    5.98617993989772
In       14.77456006541021   23.26495255203779    7.00113361626967
P        13.34135768977673   21.56210957285926    5.89469224507206
P        16.86817222404573   22.78120350897412    8.15372329285966
P        17.71417743561630   20.54293969347465    5.12354256325808
