84
 energy: -6.057274540052 gnorm: 0.000537237808 xtb: 6.4.1 (afa7bdf)
In        7.60836131123234   10.31716772822137    4.71546788786998
In        7.61344991087494   14.72948450914540    3.84224485879263
P         6.60380103606144   14.71962794253110    1.63921335114872
P         8.64107409202908   12.50970761277238    4.30932312288758
P         8.34713143622641    8.11123239222515    4.02945485302402
In        7.58966880405954   19.17684784140853    4.53064265265883
P         8.41641877941121   21.38947467071607    3.96776690896876
P         8.62833004525342   16.96180561249907    4.27525701410110
In       11.04980202562354    5.54756105884800    3.87136343191570
P        10.34353257748381    5.69980069283700    1.52603434242026
P        12.00728264758452    3.31603622578925    4.28143202812393
In        9.38849820212044    7.94793160999454    1.82047540315746
In       11.05523583291663   10.13048912032199    3.98961421676425
In       11.04455884035752   14.70724451177142    4.04532748362493
In        9.38211981587245   12.41531921618308    1.94437635112650
P        10.44142484586393   10.18683805232718    1.58674626893292
P        10.30526508350021   14.71202666200609    1.68240178771643
P        11.99751551782458   12.41792482719614    4.28846733190760
P        11.96279271916590    7.82686952142643    4.24196352756619
In        9.39777703784685   17.01776308594375    1.91780076341708
In       11.06675200717216   19.25490025964249    4.01764955871801
In       11.14229111964197   23.82817847474912    4.09220397588510
In        9.59233975756428   21.58607793467494    1.82831641897512
P        10.45746365364011   19.25591140535323    1.61320293409155
P        10.40661644606347   23.95694437120055    1.73179127541848
P        12.04679198008160   21.52478511061191    4.29389241944458
P        12.03573361677911   16.97821911596344    4.29158016003429
In        8.14005863850987   24.86715728765235    1.75259980770115
In       10.60726301232471   27.91836717936629    4.50823060326376
P        12.17521469929919   26.05932366665655    4.47857516851125
In       14.49217871808126    5.54818208307690    4.18404298283518
In       12.92465073911824    3.24679663556791    2.02390628205452
P        13.78378925603623    5.54578815776529    1.80967028577989
P        15.47452038728064    3.29187188673422    4.28122525658516
In       12.84216101877664    7.84389134970970    1.92807573628829
In       14.45648834483571   10.14291423929009    4.14803585137725
In       14.48248823966744   14.70197200324425    4.13448424804212
In       12.80873286789856   12.41638795809818    1.94629285197377
P        13.79939717395412   10.13778569904710    1.75942915458461
P        13.80723882553766   14.68752917509558    1.75059396780167
P        15.43541627374012   12.41867696333240    4.41082807701304
P        15.38899763504746    7.85576850178325    4.46400944402208
In       12.81223009034323   16.96032852892157    1.93824558883056
In       14.51500939639647   19.22986974726353    4.11176193890949
In       14.51349494538650   23.78202723801928    4.10230557090487
In       12.85185345139188   21.49317068169486    1.95292896762993
P        13.83980105431531   19.21893816637586    1.72661858477018
P        13.69157812361523   23.82121458994013    1.76404210965839
P        15.49673362510677   21.50651329090813    4.34381164257046
P        15.50036096695453   16.95997689924081    4.39053509954847
In       12.91209458329918   26.15692209726926    2.10921014669441
In       14.81034101928381   28.44859720969196    4.31492259478118
P        13.88921239918507   28.41594391129012    2.07019987310821
P        15.45030592955083   26.07262186864478    4.30712880298116
In       17.90542034554583    5.70593674492502    4.53322294115997
In       16.52827699524970    3.18919722200380    2.09374040602100
P        17.29911709714631    5.51709965287115    2.15719742157594
In       16.29128714167441    7.77845162856696    2.16004537063352
In       17.84009962868787   10.15395297715599    4.25276717313718
In       17.96856188792370   14.68459784912467    4.11392873188320
In       16.21922018821072   12.39708588721715    2.06125105205887
P        17.14405341412982   10.09879112303697    1.87643319530887
P        17.19281743545529   14.66979337429968    1.75728615158017
P        18.90275591058291   12.39447295220029    4.30715564253251
P        18.93984749515378    7.93934739721494    4.44340442456019
In       16.24765887195309   16.95820910563990    2.02901982311900
In       17.92062105985098   19.25909124560856    4.13334116768854
In       17.92262618889849   23.79404773923511    4.16236711071893
In       16.27432068346557   21.52798866830744    1.99272485359330
P        17.20680197707872   19.23446688135866    1.76209771004192
P        17.26022720011861   23.78777709634348    1.77843373521762
P        18.92525958774162   21.52639825118876    4.31490918053847
P        18.89914300915320   16.98070384677075    4.26407099504750
In       16.26340165371875   26.04905984693875    1.96345296853735
P        17.71677859777384   27.98531546060306    1.72778169941188
P        19.17796131076215   25.84046669254286    4.55448488377034
In       20.09010920922645    8.07383545455613    2.28890285709962
In       21.86808086828701   14.69145409177204    4.09502255346849
In       19.59378311318311   12.44265874181621    1.93459699913688
P        20.35476799677187   10.22443079406232    1.20449687408429
P        20.69899241882182   14.66759826310034    1.97256986523713
In       19.61205192213350   16.90089203291842    1.89685294486875
In       20.15119635352231   21.36721880602901    2.20221750939854
P        20.47875488057817   19.12939359054260    1.33334279166194
