166
 energy: -10.415400040936 gnorm: 0.000526340515 xtb: 6.4.1 (afa7bdf)
In        4.52729327943495    4.21931143803471   11.92483959552882
In        2.33567434594208    5.14243670009078   15.01474276348688
P         3.06483853357847    5.97332493095778   12.82195865147689
P         5.70173867663711    7.72104363213243   15.16013529628080
In        2.95941927100561    6.78549808788370   18.70426740454774
In        0.07217119210650    6.65567132689409   21.64557023611670
P         1.14656962745713    7.98716484462069   19.88764055533318
P         4.03573089549405    8.57648495970906   23.25670443238461
P         3.54923199113521    5.65349454757321   20.76164366862437
P         4.34483638664658    6.33910096919237    8.48357183898289
P         6.93100322287414    9.37772758523063    7.89119325391936
In        1.20939878590753    6.04785359180694   11.22495768204858
In        3.13481368863104    9.39723002432076   10.44933377604802
In        3.82718808765841    8.23393319852101   13.64295757029710
In        0.18344580983971    8.68311481959976   13.98746400644867
P         2.16543199613359    8.85065095718611   15.38480157918433
P         1.30501011289347    9.79595677152783   12.07760228724496
P         4.60748641738697   11.15959639879518   15.16486718100186
P         5.19559696041261    9.36816817895173   11.82739629544304
In       -0.55657691418717    8.45023699298242   18.19666417734734
In        2.56094967593831   11.02782427751052   18.30571725124528
In        2.51446026552082    9.37956830920415   21.48016890192781
In       -0.87715047503553   11.06627548855862   21.37659193020657
P         0.68833022173065   10.12887304962866   22.96317652861557
P         0.71745024990544   11.96239703536156   19.69420151596711
P         4.18906786687366   11.80600643606920   22.99492950469812
P         4.25894815785785   10.20418023068878   19.89991984323336
In        2.93992786470707   10.82569002475017   26.42957183771592
P         1.95978872369061   12.39918363214263   24.84844714478232
In        4.79473885685186   10.22570721193704    7.12568355566671
In        0.88055424055666   12.82665799570567    7.23976163788878
P         2.76977069512196   11.42625662797567    7.70676080789465
P         2.13025684088534   17.45036881210675    9.00567111848555
In       -0.31703451523465   11.33255875207134   11.07458766779457
In        2.51037443798152   14.20798177750255   10.78394442674657
In        2.88878220601532   11.26509532433397   13.38266172997345
In       -0.07316992634407   14.20594606752735   13.84288989212134
P         0.95683896386787   12.15879507969959   14.61991153345988
P         0.85128835336313   15.57732450972206   11.99936842521038
P         3.47082177733572   14.66181624475360   14.40617161719924
P         4.04108753307982   12.39090394898673   11.46980476282639
In       -0.87499073954682   12.53463463202082   17.90046595339731
In        2.75210962207722   14.47798088422686   17.96844863298378
In        2.48507673180037   12.67935966740651   21.36496609166165
In       -0.46299999303965   15.13462526860930   20.89448221742090
P         0.79766475335957   14.00347064581299   22.63524507268404
P         0.99186375630480   15.87937912813937   19.02483135827298
P         3.93153072014431   15.60565961824119   22.70530955590875
P         4.19085894154287   13.47674463331403   19.70743270895027
In       -0.02286165163098   13.05128314064622   26.10708201549766
In        3.35344388816595   15.45368948363348   26.16928081437904
P         2.05422396426810   16.87779167728699   24.65150447573649
P         5.21692183882661   14.41424459655303   24.93669519325074
In        0.86926981762956   19.49475929096053    8.65936824098888
P         0.13773395860055   21.42599919618318    9.88459129132948
P         3.13023979044497   23.48411671220085    8.05788837358121
In       -0.76532632149116   17.37557595180794   11.63469560883745
In        3.48481391752241   20.65382054937348   10.96304432962329
In        2.54901144540198   16.74674517460158   13.44858806554240
In        1.10504019474776   20.72492105530893   13.79441191462015
P         1.35589301413059   18.50021577137676   14.69708871439624
P         2.88996320272802   22.14014760448219   12.85409940253426
P         4.45859713173465   20.42611608174281   15.97981722217743
P         3.58833509235414   18.30491590301666   11.75684175682599
In       -0.56523695143502   16.48564194275131   17.21870509249239
In        3.09308597090791   17.83040649618907   17.53941815871136
In        2.57136937201209   16.60722359446453   20.86072713766633
In       -0.29110691266713   19.04282821562033   20.10810570164920
P         0.90254954483249   18.07134366211929   21.98258464314229
P         1.50220786864047   19.50521363649986   18.46989366603274
P         4.25904690810980   19.21524430986461   22.26890257158005
P         4.53598675435487   16.96487692781918   19.35974434269954
In        0.44811914209763   18.04418369364880   26.02076411567901
In        4.74036614152972   20.63214559999566   25.62320470290167
P         5.36566948080003   18.35634239942609   25.12453764344970
In        2.31979363896309   24.43170093438062   12.22106017160825
In        4.32348640022170   22.65005009718191   14.85105832767297
P         3.28936862978622   24.41901023930414   16.19702534333112
P         5.92068098641231   24.20476726895095   13.72215127649715
In        1.12038424376773   21.80848266487766   17.73063568751419
In        5.42488165772657   22.77345608151102   20.77382654098208
In        3.29264003377509   20.00886375266256   20.15370265286769
P         4.84378247659729   21.44969988647365   18.80228332296456
In        6.60932948820295    5.46669749760208   14.85879647662732
P         8.16904783471894    3.83501089267309   15.76095619744316
P         8.13114611352729    6.17091225892756   13.03112638156798
P         8.31914076141522    7.22914806853623   17.01041987128377
In        6.59886665665059    4.73900558981119   19.17046374322882
In        5.26022127427768    7.13495318202359   21.69999456855717
P         6.70868511898230    7.14067737049702   19.64988483529503
P         8.74297625146223    5.70371342752442   22.49796605986373
In        8.90371817489791    8.03706431745027    8.29817185138671
P        10.11881288144731    6.71642520171323    9.88944978292909
P         9.26387453275453   12.40377242043201    7.17418829901485
In        6.72530851426355    7.45682394885609   11.51172068811842
In        9.70209533294712   10.18186402410176   11.65935333100339
In        9.21113457431245    7.63497038953528   14.74448182359747
In        6.40753134385812   10.76109184169068   13.51247869686555
P         8.20811185777271    9.90211448424879   14.95131092887051
P         7.98097160379740   11.94349091011413   11.92531591082741
P        10.88713460022501   12.03824780195980   15.11282745165337
P        10.83294941326349    8.68817540206415   13.19272919099798
In        5.88167435079177    9.11075862979588   18.39996864991379
In        9.52931257332296   10.40819129122834   18.53148495721460
In        8.52860451263884    7.79411234031060   21.24750781143574
In        5.99993737419239   10.83513481589999   21.57884870294086
P         7.49978230031147    9.33025000544449   22.88605808971447
P         7.70877705919666   11.46003018238021   19.83550472994663
P        10.57956599246106   10.92128406902618   22.99931890129029
P        10.43774661966112    8.67581099927135   19.95596959051619
In        6.00364604465765    6.63278748874957   26.05492205484102
In        8.63554002871642   10.29379200655452   26.36874871324196
P         6.69886071405246   11.14493423096763   25.18511713668515
In        7.18883089198667   13.57182511008385    6.90276734764794
In        3.51311171921725   16.17171820120839    7.47469520190230
P         5.15923029537379   14.44184367819230    7.89821020872174
P         8.36788548431040   17.23256141062300    8.09520346966100
In        6.16915558941244   12.04303431913206   10.23228622137967
In        8.88001838789553   14.57240105213049   10.41586309758706
In        9.13455446777606   13.14639926128950   13.80330670729239
In        5.38247145512023   13.71214017161192   13.18128895486802
P         7.01386679477303   13.49993348943469   15.04623324349642
P         6.69805564942857   15.02436055185856   11.50081740711127
P         9.34133685549370   16.21150574676528   15.41822174052131
P        10.43875877353442   14.62502589025227   12.29132465908634
In        6.03161192324450   12.51710629508169   18.34874297438545
In        9.41434654621708   14.07107590635361   18.54375770502577
In        9.11169955544760   12.39658909312415   21.69582260146928
In        5.73082019936080   14.41860474673413   21.43721486986375
P         7.31760783014646   13.41775384229399   23.08659791928149
P         7.61472788022857   15.07410002502816   19.92149654169970
P        10.44027204228896   14.94747810322582   23.63943662901710
P        10.92981202946734   13.30917864760929   20.28776354999129
In        6.21280421700577   13.01772557239950   26.69909586551977
In       10.03373176782493   14.83952527960396   27.07648158377201
P         8.43877580855344   16.29180901055761   25.95654355678005
P        11.90423570247832   13.56716240316192   26.27328136033081
In        6.91200494678519   19.07805025518291    7.64664770550354
P         5.33132528964293   20.86363843490243    7.83624802985106
In        5.46556361221732   17.03921903609782   10.77847412873354
In        8.19535706513703   19.77534239570198   11.69490542009871
In        7.80909735558316   16.17657345687995   13.48023792415756
In        4.70943623433044   19.27190009195320   13.79648212420359
P         5.74389583903264   17.12016227036801   14.45813204216698
P         6.23141316608240   20.92550610781606   12.67399218067885
P         8.31229839008952   19.31666738470513   15.27155470735244
P         9.18191494419151   17.57651651278533   11.97051730418044
In        6.33786014436208   15.96791890879899   17.99253399519538
In       10.04615585571476   17.89439708656583   18.51515111878092
In        9.09565785894210   15.88503152201260   21.78678227847600
In        5.99005634013595   17.75419628190732   21.24205794576134
P         7.33944033498254   16.99141788390148   23.16993006504725
P         7.97291480231839   18.29303001304154   19.80296569873160
P        11.11541936635321   19.10606669613528   22.64624960294520
P        10.97366975408313   16.59770900026168   20.33536844234898
In        6.61434434821632   17.48985834261233   27.03915984380233
In       10.03171402096280   20.12347181942987   26.49941389358688
In        6.12854903816617   23.12163269333357   11.53460665112870
In        7.41514202236731   21.55092768061062   14.83686924676857
In        6.95495794396598   25.05795388069093   15.77908139459486
P         6.92400113310461   22.88945116885110   16.88223618053796
P         9.27300357293371   22.78759068133172   13.83418779220617
In        6.39259516253683   19.56587067095915   18.38662230387694
In        9.08323667922760   19.80386373127252   21.47541092641988
P         7.54586859876392   20.64766304584964   23.16589740067069
P         9.42604007245166   21.54198368619748   19.78726080780141
