324
 energy: -21.738885434228 gnorm: 0.000357811190 xtb: 6.4.1 (afa7bdf)
P         2.53626672958661    3.35343149642633   18.38855620428890
P         3.22623739064511    6.52935501644978   13.73134500305776
P         5.71973470944070    6.26657467292869   16.77992836172442
In        2.71396226889416    7.12463037017476   19.42177856147594
In        3.34942582025275    4.74163683910880   22.48214020390325
In        0.44528649816643    7.45537102914155   22.85586972774578
P         2.21490655996037    6.24919397815607   24.00434995700986
P         1.09719544705884    8.47426053275101   20.70009704070175
P         4.13176540582270    8.80902246401774   23.29864242580357
P         4.43060213266555    5.70144522656289   20.47297657260889
In        4.78971095794673    4.57289049312438   26.37846538298031
P         3.72732883740905    6.75385449169583   26.79291396945412
P         6.33763808215713    5.61396326049502   29.90502880546819
P         7.14228036047992    3.93065920002635   26.05580835374937
P         5.58141974424296    9.97208708751855    8.52556246857911
In        3.81139925145463    9.70189397033447   12.28805697844803
In        4.97854725689026    7.75214724825001   14.91699899931736
In        1.09768755812834    9.21797908100953   15.42119675695594
P         3.33321272413445    8.97673225623437   16.31847043810157
P         1.83975765022870   10.58118947168984   13.50738388561803
P         5.73286632092130   11.16207687170639   15.42279304564170
P         6.01835736642642    8.64998607901802   12.77326921720049
In       -0.64897511277510    9.28691134622467   19.20753282700381
In        2.50654631551812   11.81808876824757   18.69866347226863
In        2.55481263366593   10.10446127981555   21.92596690598447
In       -0.60973235097823   12.21936071203179   22.05010113427012
P         1.05333713943294   11.24797116141940   23.52097167565038
P         0.85006575033530   12.94203341718099   20.17221846838451
P         4.29454231299845   12.55618215199759   23.40832927755405
P         4.16868447155870   10.63760798524807   20.08473218388659
In        1.44023104043019    7.17384917299047   27.51490091631591
In        3.11986388919086   10.71787612965537   26.57975724375886
In        4.92866737026625    7.38245073498044   28.90834378305342
In        1.94350328163645    9.99276988538338   30.32772645330486
P         3.75424004955878    8.45821753524903   30.79819622089567
P         1.87339265058057   11.65279053162803   28.49501736426668
P         5.02922911479955   11.84342136905712   31.29918064026284
P         4.95718173756168    9.65921620302399   27.81865556462053
P         5.52616221695151   14.21653023097395    8.88923839614651
In        0.17724941464213   12.27418662834605   12.93264699095164
In        2.93600033635283   14.69007585968216   11.43558482655807
In        3.52059081827275   11.99111378665473   14.74193384338749
In        1.43043246999642   15.91503826382876   14.68462183743937
P         2.24551374231064   13.86997309235860   15.68693715129825
P         2.81372566076929   16.73822167635916   12.80748112735525
P         4.89126685757104   16.20749722270010   15.84655808285429
P         4.32711698777645   13.03420497843640   12.61047603196651
In       -0.73669383413410   13.75021973049480   18.47885122703694
In        2.79680754561173   15.33020170654687   18.71226042248429
In        2.74460655475605   13.53251784789511   21.73857862008086
In       -0.14924939937998   16.25455746346736   21.78634633793917
P         1.40643734379509   15.02649350158053   23.18005842072786
P         1.36107463714391   16.94741090282478   19.94595801209999
P         4.71972889643032   16.07251603769766   23.16191090078138
P         4.48968948316439   14.10434744244973   20.03947274634963
In       -0.25207704061243   12.38543523995120   27.54072160328705
In        3.62955176887281   14.65941827936689   26.45344254990665
In        3.56831860844329   13.04898413259058   29.71408034086634
In        0.69812993542381   15.28383774605716   30.03247186140847
P         2.31215144125127   14.21569056076618   31.49655341390234
P         2.01751363892024   15.76901776637268   27.98280266735064
P         5.70306546727776   15.28350477198174   30.97401537836483
P         5.23667979900577   13.44012036864153   27.88911426215394
In        4.28187424732578   14.31268043510816   34.83625345608436
In        1.70526468808001   18.42376222417771   11.43059553472270
In        4.31954121242815   21.40449252039529   11.46972190463678
In        4.45889931143133   18.01012840521081   14.21252014555797
In        1.43307876228733   21.25932630795390   14.24549811288005
P         2.67226693439853   19.40859793530219   15.18456979101506
P         2.58921881185669   22.68651016757581   12.62991503526835
P         4.83544712972561   21.87574527090249   15.50076977643876
P         5.47526784954258   19.44207537976872   12.41629538650099
In        0.08598731250444   17.98404880140847   18.11987132993187
In        3.89510893925615   18.94781049481290   18.38706653996342
In        3.29320483098890   17.28667677844863   21.54125311402163
In        0.92799569518942   19.93794414984490   21.23125588735751
P         2.11625895909490   18.85710561130905   23.06110935514985
P         2.78728462829136   20.67915009086231   19.74850946762841
P         5.22688478348726   19.54373025087621   22.97819774929381
P         5.08461236762513   17.28984175806294   19.78068356331803
In        0.27752359487352   16.56193495058426   26.43920190847161
In        3.73641103209270   18.29926171607904   26.55248603473200
In        3.97928171302271   16.25797567075215   29.49377201043244
In        1.14489148005154   18.99179240691783   29.66790471449543
P         2.78546797791844   17.80677498506959   30.99290661832985
P         2.19654165924942   19.93095210965431   27.62630706692284
P         4.63095198858009   20.57083684676016   30.43113770690020
P         5.55543909509319   17.08397190226355   27.73019503561659
In        4.03501640473849   23.85752733373677   14.28501739406644
P         3.35839265071391   25.45819154873917   16.00554209449943
P         6.26153599364758   24.44718782610403   13.33886098968214
In        1.91329272872135   22.61972392707393   18.55055754260118
In        4.17551514997650   25.62847043995640   19.85150102723055
In        4.11674335767414   21.38430094187686   21.74689479903716
In        1.95868500391859   24.80610459026692   22.65319911495823
P         2.21086482819710   22.41304196238611   22.93951695253475
P         3.19051274287953   26.71033054246522   21.80045439027477
P         4.86313147326186   25.68946021133220   24.86263583884976
P         5.07647612895396   23.49207178480382   20.74613297655925
In        0.51970455873401   20.83862126495908   26.09065366744352
In        1.67842372056985   24.78841314495524   27.00046155626397
In        3.23307197423040   21.83912355785566   28.86660963099402
P         3.77026747415415   23.55213327790862   27.13775818237421
In        8.10019486369307    3.41668994157737   12.56818557469127
In        5.31225328793397    4.32417885710775   15.32937466494581
P         6.35184835694563    2.25954083411927   16.08124460257278
P         6.35220048913992    5.03121959819513   13.17687193934333
P         8.73987053655553    4.84359184641076   16.10172242116741
In        6.13181756810203    4.10418501568361   19.75037434740649
In        9.17820125563462    6.87886511317476   18.85334817273670
In        8.56938064106241    5.51152168934348   22.29806695207803
In        5.60250700794865    7.48046420277980   21.82746955177709
P         6.56147978238285    6.04618880702562   23.59807909036510
P         7.33795354674942    7.97303910880022   20.08233027815164
P        10.61474664458264    7.82734327830938   23.25885366158866
P        10.18426072739203    5.25756370758545   20.42002885595764
In        8.23197755710218    2.32962787675682   24.58720190522317
In        9.73146608798758    5.91566161263009   25.79130778758016
In        7.92074037483673    4.63255644290917   28.30868587999239
P         7.92002513597809    6.88425547207482   27.18454841704323
P        10.06200605900560    5.89451112871513   30.52653060604418
P        10.97556529206480    4.10280095281951   26.83341459090272
P        11.84446630179233    8.76755944040488    8.24382159615114
In        5.97620307083230    6.63680562511743   11.33037294366935
In        8.89848095088635    9.21868639939142   10.72713563591349
In        7.95196750393484    6.51245726498407   14.45963722240527
In        7.54174276932945   10.02644033847693   14.19910756616630
P         8.15305408427516    8.44458621735219   16.00460369719099
P         8.72496196839371   11.16220313589038   12.25994213043960
P        10.37554488055653   10.84388025759311   15.74410201569529
P         9.17343117026392    7.55015098183439   12.53812091859720
In        5.80745242581384    9.37270937973643   18.74071444540621
In        9.07407249863854   10.41827256124993   18.74341431100887
In        8.88636875286428    8.86627489182893   21.82391519905626
In        5.78404833976233   11.35588101789697   21.84611750522359
P         7.36325429645877   10.12799846585808   23.29494654506636
P         7.51683408321322   11.80169709783623   20.09030149912954
P        10.86942895901901   11.21483032768051   23.29337124697968
P        10.75924550847842    9.35009819286544   20.21694517378999
In        6.40119434902219    8.52969633446425   26.14752770269473
In        9.63626813739852    9.59494524309557   26.32275280833203
In        8.93822467268149    7.72773743507178   29.30807153400807
In        6.35586576056623   10.57222686695219   29.65749646526735
P         7.47429195162419    8.81304034911041   30.96571606521758
P         8.12610453663912   10.80199007084699   27.88390645898484
P        10.96031521312279    9.49298082476554   31.36501683220818
P        10.96302266779959    8.22165899243837   27.90416436403274
In        9.42436421663360    6.85560769735733   34.25723496676408
P         8.89959718361691   12.47445849363521    8.08027668243576
P         8.57758716115341   16.89734643106547    8.05321000118489
In        6.43941912046242   12.04051700692984   11.80564272414583
In        8.67486370759196   14.87005478907585   11.52344299780188
In        9.72464127757233   12.56101582661388   14.08728462950824
In        5.59369622821179   14.60786505891501   14.11275939981939
P         7.70805735409575   13.67072443770558   14.94884333770452
P         6.62052438577173   16.00539887759337   12.31224280367482
P         9.66042428371882   16.17492848724734   15.57029182853970
P        10.83597136473387   13.96825821729887   12.33138646892043
In        5.98166357767372   12.90023212066838   18.47563966485232
In        9.38665279654924   13.74575577848961   18.29983169103338
In        9.29190367929625   12.37124740982711   21.77522839160758
In        6.23107117693716   14.74061265087406   21.72194869016588
P         7.81235150783910   13.65239940817080   23.28304937989422
P         8.04607981706749   14.94432943624260   20.00812693823984
P        11.31569023997964   14.66734766247747   23.19045020292013
P        10.96677213791279   12.88126422243441   20.00280076361843
In        6.65963327799298   12.10207459749252   26.36724330953304
In        9.97220353892567   13.06234333366055   26.29836129581182
In        9.84388653374656   10.92970229093513   29.70654196031831
In        7.07841671867055   13.80484850159600   29.55608857147793
P         8.63858742320556   12.61010528362929   31.05103268192485
P         8.59414468748464   14.55879195353798   27.70711591721649
P        10.48688392454375   15.70022630989204   30.84192689836927
P        11.37499215069942   11.86947410757615   27.96947930250321
In        7.05465076574873   10.69537314912372   34.45457955779033
In        8.66515711175042   15.19028089303800   34.15261696373300
P         6.69700634605987   21.03042510257930    8.38145407370182
In        5.64530431582112   17.63569172080191   10.74954312850170
In        8.96138285485241   19.61520774101238   11.15772529924172
In        7.92028874604040   17.19472481860964   14.12418927372433
In        6.61041215789109   20.69029193661810   14.27567084697484
P         7.28846919681197   18.89542119892453   15.80802745894068
P         8.59047622116575   21.32158971984788   12.88423993557812
P        10.64498920507341   19.63585732423119   16.26030663281429
P         9.79221657409792   17.74975643127968   12.54328614700888
In        7.00877391323904   16.52043206089056   18.42025358643880
In        8.98662963939886   19.35180385400145   19.10355888494623
In        9.88658676721932   15.75297526888110   21.49161759483054
In        6.67049537952117   18.17258635822930   21.50658858135102
P         8.33958047585136   17.03454173700292   22.92585014825935
P         6.71324974045163   20.04280442669265   19.81141482617535
P         9.34634960520552   20.11270260503201   22.74248479278467
P        10.40233422888851   17.39317833583159   19.65141341575398
In        6.94403336125699   15.69283254629532   26.23101960177972
In        7.12521482386974   19.07938413976043   25.70609886563239
In        9.00657572349721   16.61479188160357   29.09159920158494
In        6.12060120380519   19.07348006072240   29.15265002589206
P         7.65890411739490   17.92256070666961   30.70156645674945
P         5.95865443335143   20.65847920835429   27.22209500999342
P         8.13836191564167   21.58369582394299   30.12828961847119
P         8.91887048815742   18.20837004848399   27.15719893291508
In        5.40994897308265   18.73643103760509   33.94161247013270
In        7.79159065776672   23.36813727048936   11.77362071678349
In       10.00467760380668   21.61829164603124   14.92625838233214
In        7.45779770535464   24.41702153757616   15.47002495502599
P         8.39273232875304   22.48316147572053   16.59304043839499
P        10.43215513045282   25.60653115113924   17.45787973810585
P        11.08796289149041   23.54358199037232   13.76887385104538
In        5.68329212023024   22.06293054641010   18.80861106347220
In        7.45911366678442   25.23028668096418   19.42733379457279
In        7.49961830464403   21.41658263850146   21.76776899777207
In        5.80445721056773   24.77731848522006   22.77813860632001
P         6.55797676690063   22.60990471103949   23.71829472841748
P         7.11741590310945   26.44943641880243   21.51151191550030
P         9.08585333784355   25.53430184141372   24.46482134457226
P         8.50021609313656   23.15687212873267   20.28306208712419
In        4.20115950011012   21.57029678787665   25.72837670144717
In        9.06015574627509   25.20861939764844   28.45172915098286
In        6.53843497142058   22.67204021544726   28.60073452755797
P         5.58447439121254   24.38526163506503   30.08491097785523
P         7.72496389109511   23.98859158795586   26.82073544676159
In       10.98975772302462    3.91308930515465   15.81597436922759
P        12.11138378716352    5.00004955058672   17.69671403447390
P        12.16626520670483    4.63630985598330   13.76643921025907
P        15.21926108047821    6.66646735716537   16.76436625970959
In       10.07263239973426    2.83844152790568   20.08523762091720
In       14.66333835225236    4.22619473439146   20.04918822948522
In       12.52370126906817    3.04415692452930   23.54429423303392
In       11.97285369476355    6.44972224479785   21.70414991217784
P        13.11863641789803    5.39152155401208   23.60640522599206
P        13.69076589636381    6.49422511302594   19.86278764575863
P        16.44862443849002    5.88549489083949   22.87890789114288
P        13.65987649666072    2.54428229391124   21.46907149605966
In       15.50441225270939    4.44562853964140   26.66296053703466
In       11.73820632876401    4.97072405657222   28.99417524897946
P        13.94057073792646    5.70232035400216   28.05937572142405
In       11.14237626559805    6.10243808932999   12.08821587434269
In       13.86881624702670    9.21626365838865   11.78332227436559
In       13.48708897297846    6.33265189592092   15.04583008395054
In       10.55985862466503    9.07294547948308   14.01247526544963
P        11.27913976114961    7.31599822165301   15.59334801052603
P        11.77689477261606   10.44593193548937   12.30819226534984
P        13.91943405500358    9.87237011543444   15.40278966503894
P        14.59198231083548    7.29776921115607   13.06060232531347
In       12.49456960495781    8.36388148982147   18.75218658082445
In       16.06748131076309   10.02768948238332   18.60108714564117
In       15.20442564628531    7.55786749473194   21.58511184992247
In       12.51709146565580   10.05902918611762   21.85168432733915
P        13.88445372349667    8.65280831603936   23.36334885762956
P        14.29631099796143   10.71018723930367   20.19922441872666
P        17.19121975158177    9.98641977627823   23.81354125550540
P        17.03822099352110    8.53979697801128   20.24765904999176
In       12.76734586306570    7.23995805637012   26.51076094361904
In       16.17502594368014    8.44947223594645   27.50777042594034
In       15.10039487476850    5.82396794846948   30.25391236235101
In       12.45967347810906    8.17637796846425   29.91476474090061
P        13.24497589844827    6.59368217389742   31.64349806728958
P        14.09705218907231    9.37489334809166   28.45773098231349
P        15.24649692066903   10.13857227203684   31.73507789173892
P        16.91800472158456    7.26060072334981   29.47909184816496
P        12.28429448943130   14.92671546916989    7.63067626331970
In       11.66935218264858   12.32151089929474   10.69283401196152
In       14.76920338251158   14.64340366544513   11.28483886932686
In       12.97745034659034   11.74402461751690   14.13792838452211
In       11.60329515986219   15.37058991406449   14.26762234992052
P        12.52069787969292   13.59777921368046   15.71086185937408
P        13.29500797795240   16.14490420379623   12.58528454039966
P        15.97914172945418   14.52426469464569   15.34620817059404
P        14.74178684679774   12.67396105139383   12.68849649445583
In       12.67793657209882   11.74300724905116   18.62897090821306
In       15.84763611474615   13.92176977563298   19.07859951357358
In       15.87807650541190   11.16660789737031   22.10776605308465
In       12.78724543545244   13.42891102466950   21.64718892349780
P        14.19152882259877   12.41091773064250   23.40663853358935
P        13.75602898936307   14.91877715000101   19.89019758710451
P        16.09395998752385   15.37945079957990   23.38411494163177
P        17.14473325114598   12.82491587673813   20.79314701044747
In       13.00054964423202   10.60747745272009   26.60435986107313
In       13.87553881468761   14.30658363485795   26.51855154183426
In       14.09731401310013   11.38792852075376   29.96601675101936
In       11.43251677963514   13.95201443801938   29.37921109440436
P        12.38409872869396   12.62895140283745   31.23676997686920
P        11.85033341308173   15.41431103544135   27.39062985405555
P        14.24489730481624   16.03975884070595   30.27482624870026
P        14.90750507301647   12.91430413272870   28.20594831537188
In       11.64183079238564   11.32510410010039   34.84567313253082
In       11.53148443342566   16.87159172401626   11.00769740075416
In       14.41783094345486   19.34179020563624   11.62612245946955
In       15.07516318936546   16.54411044266490   14.31186146693867
In       11.49910594319870   18.58806722352189   14.18780115822156
P        13.46526576319860   17.93730170305681   15.53844765799565
P        12.36142689132003   20.31643943924730   12.59387225562337
P        15.77209520512411   20.75093552360179   14.95021319616898
P        16.14965589867305   17.95213080436459   12.59371687958409
In       12.21204052801654   16.20775254132225   18.48978402150041
In       14.21448109740086   19.47643543586516   18.98266055466040
In       14.55392419986145   16.37442456558291   21.77245937243879
In       11.11154551136547   18.84009216998169   21.59151698280895
P        12.72630344643648   17.55232170943729   22.92071860593330
P        12.18842611871134   20.43697581265918   19.99044452218358
P        14.88967424075171   20.20811412375523   23.24899626770452
P        15.60809450737988   17.86586879490318   20.11731813948494
In       10.36334424080961   16.66867774849006   25.87550639797783
In       12.14625844221590   19.90573369323456   25.82266443112609
In       12.76722994372874   17.28853907258709   28.78058130241576
In        9.47747338558580   19.96804427573671   28.84290959724055
P        11.32443283259250   18.84577563204338   30.02647450618499
P        10.91178424167270   21.38318431422083   27.34981938616908
P        13.67591134065851   18.25307653083355   26.69382239860233
In        9.93105057452919   19.86218741264701   33.57000264675007
In       11.65015655244970   22.47937601398306   11.63204197565696
In       13.43947400040652   21.35327699720728   14.61272650895327
In       11.88955143721742   24.39990251197821   15.94215117756966
P        12.74389045166750   22.26724353954938   16.78408173775421
In       10.77789350974481   22.43723157329358   19.65618858126834
In       12.71409255261698   25.29361460281478   20.73773774345679
In       13.21994239003240   21.51604072535894   22.02015378181969
In        9.36154430420222   24.10062863495752   22.47667279078794
P        11.28053212458283   22.64794261126019   23.04470136489381
P        10.38238897482811   25.86697500211629   21.08292776712266
P        14.06654335070668   23.29617830645797   20.53116270659425
In        8.92299565643991   21.99559692513312   26.01834771845887
In       13.32389695647912   24.83831212197838   25.48488945831250
In       12.27043114564348   22.42078198068343   29.08671135446584
