56
 energy: -3.784631418678 gnorm: 0.004430058599 xtb: 6.4.1 (afa7bdf)
P         7.88650123312378    8.17686601871355    0.66715206051790
In        7.39727378609692    5.58254202661307    5.60610892767337
P         9.73741156695142    6.13440449163358    5.95213205575379
In       10.45217946388725   10.09045618693761    1.96305753618228
In        7.69438375490300    8.70062170142443    3.05711811395744
In        6.33766645825218   11.50773078574472    1.67210664861683
P         7.80450309976355   11.12026825249912    3.61165171779206
P         8.56480294612975   11.09058330748723    0.65138180489725
P        11.81662957613666   11.71811480380061    3.28240056790766
P        10.08106665849421    8.30308631473518    3.68574804238165
In        5.78736692028057    6.15418541532733    9.26794197961310
In       11.80264293967782    9.93973906960971    7.00477891474519
In        9.69263338795127    6.67397515264226    8.37535423897954
In        8.19978930625275    9.30288610095061    6.93900381994883
P         7.49888755878740    7.76981968672685    8.72081548215486
P         9.85930409812968   10.55086514045990    5.55559062418378
P        12.67298511014979   11.79774277728772    8.38234111853004
P        11.21844980725112    8.52957785195802    8.94699883810409
In        9.16563838621021   13.48202416043803    0.63552876485183
In       12.77345028926434   12.90818237393339    1.31048796895149
P        11.13988382923058   14.74933738560147    1.23056850289036
P        14.85347465555131   13.90462729675358    2.13848300226930
In        9.38305377774488   12.51643830781347    7.00680883934950
In       14.89323728683668   15.83206818150207    5.45825819563702
In       12.40234681197180   13.92713430838695    7.15147478792078
In       10.08937132020966   15.87888021262690    4.68126982484604
P        10.12009727544404   14.86113863445502    6.87396441087008
P        13.52300307067536   13.86754177290587    4.91594139299222
In       14.11165090341655    5.83758575682420    0.85630675824306
In        9.87324049170667    6.72950005434356    0.86749229230392
P         9.81665732849899    5.08529780137464    2.64944393803522
P        12.23285854732762    7.48579995871903    0.72511127561200
P        15.20773054124476    8.02206516362334    1.26270822448048
P        14.14598259466940    4.58433878813557    2.93780170749658
In       15.97669800742289    5.59059808910636    6.92592941363979
In       11.77638551590995    4.76811256332001    6.13292403244226
P        13.64885475727295    6.29804839133673    6.58063143436058
P        17.37190684693342    7.46432776714649    7.60637858776273
In       12.36897215092379    7.46143014521786    3.20736594158871
In       18.39345505694230    9.66765337345376    2.24112577463985
In       15.93964949043344    7.67427363683168    3.59170898182642
In       14.03319075351403   10.52140606248654    3.15357497455591
P        13.94842256757881    8.61319781967826    4.77047285810076
P        16.13365755362678   10.59911610368478    1.79676428443366
P        20.30431912482458   11.09781792393400    1.79846499589969
P        17.87552822529428    8.88453147796133    4.50599469345191
In       13.25149625034430    7.13033489875185    8.87890776838617
In       17.85471564902514   11.00701236233661    7.94156933814326
In       17.18709108924168    8.22868190912763    9.92937398480324
In       14.66522710275829   10.36933580769468    8.85963428465066
P        14.76298982964378    8.39905439672101   10.36698539743566
P        15.95883946391388    9.93458615582054    6.75205535106545
P        17.71340050213562   10.58944900651407   10.33068166984401
In       17.05365011573200   12.84140626831947    2.34345976687855
P        18.28414847235249   12.72496156541313    4.42642719758017
In       14.88514606313189   12.04814377910057    5.96391688971850
