58
 energy: -3.791264283083 gnorm: 0.000844184818 xtb: 6.4.1 (afa7bdf)
P         9.96119348916944    5.34954088531009    4.18909315533939
In        8.75631923275960    2.39530433526966    7.56621928738697
P        10.53324523764559    2.63128048558445    9.22305105987561
P        10.27073046498048    2.17697958290216    5.63093934898978
P         9.39114986451905    2.00531638572414   12.65695018960899
In       10.20874720138323    1.89857688889525    2.07187786916128
In       16.45848216743149    4.74682861672342    1.68757729067512
In       13.69849915680115    2.67276351907954    1.40772013776918
In       12.30817434296215    4.84871823236379    3.79444407287268
P        12.21423035444372    2.39874871456625    3.38081307391084
P        14.54041201781991    5.51987769041325    3.01284807742980
P        18.25699936117586    4.91498056809672    3.34404731684269
P        16.14237697917455    2.34109995975411    1.14371728279763
In       11.14453523522844    0.10050214813960    6.63552613992422
In       14.84773059525658    5.10842802278185    6.50956458963271
In       14.70533627107645    0.71044434747668    6.32655343821417
In       12.36179149810120    3.04521045206887    7.61396599694838
P        13.03353995332569    0.69077237074529    8.11496587260117
P        14.27885133909663    4.12016079104041    8.70799366769320
P        16.99874082869436    6.27589863961471    6.73216477524970
P        14.87803211792783    2.92658399954271    5.24516432846072
In       10.73540641454217   -1.23311887236501   10.85774671791247
In       15.26090438429524    2.95561110938999   11.97454804899591
In       14.69260888801780   -0.55019274869510   11.38708306463748
In       11.79275382991499    1.75683720199781   12.89175523956265
P        12.47032821458370   -0.56584509676316   12.41016932823533
P        12.98189931497025    2.83126412908199   11.02035612058095
P        16.50235363844846    4.66872083834646   10.69665776033413
P        16.13194233233776    1.18800984661801   10.42807392911580
In       16.05556167399721    0.36056597393411    2.61127218035743
In       21.43505353847178    1.68637236996042    1.43857214799843
In       19.41584073629223   -1.23193154028136    3.33115791976904
In       18.72514332310951    2.50167993098787    3.37786847789964
P        17.83347373159520    0.38048440640381    4.32283641134300
P        19.01811126872843    1.91258995281137    1.03152208826990
P        22.07908624580364    3.68804684624794    2.65390033438811
P        21.48786590043034    0.07585816736333    3.32365333113676
In       17.09136662131010    3.00811864871072    6.40901688149719
In       20.93912416575882    2.73207403931276    6.50498226267769
In       18.85846582811658    0.89925957983380    8.39196235532765
In       19.21496299671514    5.53420377249279    7.49066996841565
P        18.43687581269561    3.36613893474113    8.45857630792590
P        20.47834301330549    4.92224335226460    5.47418368110739
P        22.24209933092070    3.41339624486621    8.50111668127762
P        20.09288365045202    0.38309831026027    6.29550407405134
In       18.13797411532927    1.27107739507625   11.87753632156649
In       21.85925308361954    4.33107217738019   12.41279623405759
In       19.97936392542921    2.19186501463941   15.12237278495663
In       18.42311793433542    4.74754603821376   12.22906829612964
P        18.05128020904095    2.84469187998976   13.76260282491172
P        20.16811641616767    3.96954264756631   10.64796991889332
P        23.94080389937256    4.35320243580076   11.15940524002641
P        21.83107643035969    2.13207673147760   13.53502256627451
In       23.60888851369851   -1.07321528207412    3.07361411791704
In       22.12645704779798   -0.17443848509588    7.60655064070877
In       24.23084080488712    3.27234411053796    7.08549709931152
P        23.85542107584969    0.99282638276657    6.35467283886055
In       22.02033547187878    0.62631296305765   11.65536883222614
