20
 energy: -1.156591061372 gnorm: 0.000730379606 xtb: 6.4.1 (afa7bdf)
In        6.11826206168353    4.02250103913946    2.64713178278773
In        2.79725218726297    5.77031301702877    2.87469665757001
P         4.33664222395783    4.93513071559920    1.20885922799491
P         6.54302817816921    5.94514448200728    4.14662530550350
P         4.91302456988451    2.26892785813041    3.82869734971104
In        6.98760742194974    3.65689044584663    6.90313813988880
In        3.33176365521436    3.50158752871660    7.57272504926436
P         4.87040012113681    4.67014523750928    6.07526583480841
P         7.83829089411716    5.20504931876344    8.59975701773877
P         6.68554720848367    1.33352845235167    7.52958180934361
In        5.54208189701109    6.51265653132943   -0.20994691588684
In        7.99262300259142    7.26625859784434    2.63756273536138
In        4.84349801525870    9.30933604007758    2.87457333906825
P         6.30245137692737    8.34933887645854    1.20458496684589
P         8.92009992377951    9.18419592270033    3.81183579289296
In        5.13413513045455    6.76676005398174    7.38149927879269
In        8.75164077021879    6.72728211369213    6.91157129719508
In        7.05212002927672    9.96543560315134    7.54908646739721
P         6.81382280887346    8.03925819136036    6.06308799815076
P        10.58732972778271    8.16162454836721    7.58526686555491
