60
 energy: -3.778382182196 gnorm: 0.000725229396 xtb: 6.4.1 (afa7bdf)
In        4.04920014432187    3.22954997176813   11.24353926498177
In        3.70168349129043    6.83411193034391   11.13014876786285
In        0.18083704730773    6.54547048408764    9.90960316354897
P         2.43972605763809    6.42817132028984    9.04757083701856
P         2.75211806253156    4.91813006249293   12.39562463302584
In        3.34244355971075    3.26085016720478   15.71027898464424
In        2.81978878008306    6.85770197910096   15.52552597873082
In       -0.16170833061245    4.87164585963969   14.85960784970852
P         1.30631949684114    2.97517437455304   14.41286028423947
P         1.03241177780214    6.76328579873988   13.78381400652957
P         2.45389449591892    5.01812336594565   17.15511155813265
In        3.49142977067095    7.07239677358731   19.99654410767368
In        0.62016723625610    4.99810487951615   20.43479914254098
P         1.62058252220102    2.96616886187019   19.61479350640408
P         1.22666796533508    6.88752781431517   18.94377695663377
P         4.56944665021442    5.03848919083341   20.75939430551274
In        6.22904060048059   11.25947352555198    7.18992682878641
P         4.45745830910189   12.70066384021199    7.86039236760432
In        2.88464151488983    8.47463706844949    7.78509985979384
In        3.45418730105451   10.54206881265083   10.96879642042358
In        3.46687735176484   14.50536463483249   10.92596476101120
In        0.85133572105815   12.45261552971682    8.87360288351425
P         1.84461738554756   10.23007138565715    9.12634081554148
P         2.24853850419010   14.48170775657456    8.76664092186745
P         2.43782080030828   12.53841020153119   12.02735921700496
P         2.44837029527150    8.66957438940671   12.23054342919091
In       -0.31072969353259    8.66716239630663   14.67846041216892
In        2.59418965754864   10.61801211453389   15.38960930512665
In        2.75864742275342   14.26521253799988   15.35778333937765
In       -0.43103848820764   12.38207570349089   14.70269739699794
P         0.87407770245781   10.57454561906633   13.58960210413887
P         0.85060110224909   14.29037958134279   13.75554215954081
P         1.98559348542505   12.49250712861796   16.92078736944327
P         2.02040769332873    8.74645014007357   16.93713013103422
In        0.11558026935799    8.74525512836784   20.17366239029420
In        3.38203446529464   10.54737948640418   19.45721376748509
In        3.54786116091238   14.09621178329019   19.90506303109824
In        0.12572404612891   12.54645201899040   20.11997956935058
P         0.96968903374768   10.63133067283106   18.79036525851123
P         1.25485710619325   14.44919613662142   18.99840649923988
P         4.98928328825162   12.34279104957955   18.98315034730876
P         3.38235555818010    9.07345022266388   21.42727751693191
In        2.82671583500515   13.56079057142604   24.34744485404024
P         3.09809162285153   11.56405106047283   23.08526003831294
In        0.56359872576993   16.16346251724151    9.41604083540988
In        3.53915994439160   18.11334081608833   11.21069192883098
P         2.09352826264713   18.04109399273712    9.24270521399846
P         2.95437950927293   20.15916814647438   12.39427159219817
P         2.39434667516894   16.23666827481068   12.35705548323777
In       -0.27676317715318   16.09562656953624   15.03383177032669
In        3.21575727029545   17.84005824457198   15.30396718774408
In       -0.08154697812164   19.71271108511813   15.50505258564288
P         1.02396836859469   18.01904684436328   14.13192410150436
P         3.63838136091391   19.92449022448395   16.48232240107399
P         2.41757597591771   16.15812484898210   16.93086041062306
In        0.74070984242200   16.47293460570133   20.33061112813940
In        4.28705048486421   17.70560158066549   19.60646101061092
In        1.49092511341360   20.09481118656359   20.40029992451839
P         1.94346783874386   18.16693594066653   18.96155165088100
P         4.28004800375430   15.96978179106355   21.29825643291728
