56
 energy: -3.766605292956 gnorm: 0.000594131116 xtb: 6.4.1 (afa7bdf)
P         9.75212607535365    5.56369340995785    1.93802680821032
In        8.29244680587347    3.85783305396718    5.07691064354114
P        10.36448625922962    5.12569141847394    5.30884391091954
In       12.86931625253812    9.91632767358817    0.58515276539238
In       10.68605125776757    7.29601977497775    0.46396299501459
P         9.67101731086800    9.11239178101604    1.71978063150942
P        11.35397545834665   10.51473436087713   -1.21290050743437
P        12.65536396208325   10.62934758785447    2.91511175489217
P        13.13396173526828    7.46376545637834    0.92153499246416
In       11.92758077280842   10.68017446474342    8.39758609569515
In        9.76700029252947    7.44372630145558    5.93111547864359
P        13.47898926990392   10.51415249800136   10.25736452146948
P        11.44442324000751    8.49356269488489    7.37809356219157
In       14.79202427801964    4.13735376685915    2.21014169997901
In       13.14630425512527    0.65455024224253    2.95599825613484
In       11.30946927482392    3.66974462779524    1.87394203042655
P        11.00725041270814    1.72498420160170    3.34313732708470
P        12.80463840052518    4.59518225835669    3.63103207086854
P        16.63443133070649    4.71664447885406    3.78897314874664
P        15.09699315873321    1.68875423789719    1.90446855507269
In        9.17001841414795    0.42246958409387    6.91879873115967
In       14.74028291798457    4.89622462861123    7.26255019741083
In       12.86130090780399    1.93702293127275    6.71010535732118
In       10.86697881887674    4.54540948032864    7.68419848462383
P        10.67929626397672    2.07795852095860    7.83420795926739
P        12.94829244000222    4.93545752142671    8.96111108752210
P        16.87338495891161    5.06830604103728    8.51248998196084
P        14.66231803185120    3.13816560560944    5.49201032996856
In       12.48140726471490    7.03475882752311    3.26723972316586
In       15.94072924703416   10.11099536311051    2.05511359836713
In       15.67143989230591    7.01215998301317    3.91616622838840
In       13.83780881501016   10.13900687590307    4.99404615989087
P        13.71478523485681    7.67234667351052    5.33960604997153
P        16.23745862035630   10.25000453967681    4.49040341417019
P        17.39926175929284   11.29647869294563    0.51034213840630
P        15.95104649542224    7.67030951061804    1.53571857368115
In       12.96907329066810    7.41375094357873    9.02043137736687
In       18.95821146436725   10.39055973578402    6.89466987695405
In       17.10279767217912    7.38808409240606    7.67029347079752
In       15.69075898326023    9.48963244163800    9.94104980887831
P        14.86325327951885    8.49150399967549    7.80919352076274
P        17.08973526464051   10.78424648659233    8.39178834700124
P        18.34508379672307    8.31098923928936    5.70761553660129
In       17.12247068209560    0.49832747208310    2.60926729035557
In       18.27369344408563    3.93249160951085    2.09225420044614
P        18.35219151258948    2.19591455847126    3.84781297962710
P        19.77920880904041    5.83618286849137    2.46147182922248
In       16.29627317508013    1.82829519768059    6.83215211499887
In       21.57327121988832    3.60312347895576    5.01680948556147
In       20.04309735917928    0.00485710556132    6.63559157965436
In       18.88933597269166    3.89213936279025    7.70085494173998
P        18.51297325980100    1.44717539700452    7.83251339444078
P        19.40884218102617    4.68805192513901    5.39555036723652
In       18.41652408863502    7.80184585880464    1.89689626918834
P        19.45132148882070    9.63717585409155    3.11771062315749
In       20.19924254110470    6.81576411049733    6.40136822994350
