74
 energy: -4.814890009214 gnorm: 0.000719789373 xtb: 6.4.1 (afa7bdf)
In        4.72569865036733    5.08752315197277    4.15997533327146
P         5.83791916278842    2.95339646264002    3.82972591074714
In        4.75197825050075    1.75366864787046    8.90324438504855
In        4.30831266203031    5.99896309186317    9.80541837540267
P         3.91555778842044    2.33080649423481    6.69901081948496
P         3.54921715560576    6.57977125129339    7.54780425720336
P         5.59633960540143    3.86902595634157    9.91279068850985
P         5.92475591585453   -0.40135215178527    8.75939186043784
P         3.43446141213296    7.56590707353758   13.49818539979652
P         5.92794827736966    5.91045325910421   15.65541308918075
In        4.61800166674538    9.38255408938252    4.60222211163763
P         5.05762960637507   11.52628654801699    5.60843281959939
P         5.83204154718078    7.23414064743534    4.63104954811876
In        2.50268212701829    8.73289805226683    7.98865478732574
In        4.59909013322952   10.60188510259988   11.02387544700532
P         3.31083653063875   10.81080703470918    8.95193681367000
P         5.76408793283788   12.67011420623767   11.68118315168033
P         5.09982290359327    8.19599005407993   10.65242825477719
P         6.03452256886364    9.45837835171996   16.09227946834116
In        9.66035715855847    1.27560258084391    3.64235753355581
In        8.48340039468366    5.09174374008922    4.52265080538584
In        7.00909549326562    3.29456747744473    1.72760032024614
P         8.30201784019778    5.34203169734068    2.07451785745993
P        10.13706945568310    3.26606965747842    4.97651277022092
In        6.88756696877443   -0.10672342506423    6.54872180318831
In        8.25794933010691    1.91417158753467    9.27104751686465
In        7.73605843386249    6.39415811627935    9.91543045728050
In        6.42904002923053    4.34734474604289    7.62836765393931
P         7.51743289979496    2.23792763672388    6.92320251614675
P         7.07222776604809    6.74640549503194    7.54378793130845
P         8.83395320623948    4.17621365310435   10.13586348951282
P         9.45928306137693   -0.22902748393380    9.20122319870424
In        9.11795977848569    7.54663674757261   15.90397574294767
In        7.24396319924251    6.01533491172064   13.62245484109680
P         7.47905388730588    3.68270327336042   12.93175059419748
P         8.92216269888638    7.88531997913053   13.43169325130608
P         9.23397349750045    5.11578107685505   16.22892370779979
In        7.13524124288489    7.47863678331734    2.52949213499187
In        8.13286337044951    9.65232264530823    5.06223904365162
P         7.71175174265557    9.85738776113195    2.66043881713243
P         9.00599110312807   11.84350456934671    5.70126973403568
P         9.22978258554910    7.40676456566570    5.09495717623851
In        5.96956945953174    8.79249474563989    8.41957341147681
In        8.10886879021713   10.61114446505414   10.63604235803726
In        8.68687374701689   14.48210125407597   11.11522002820522
In        6.02736235978012   13.23518322449278    9.30550145478534
P         6.92665663725798   11.06910073980613    8.52259067232438
P         8.00708660398610   14.59683970560621    8.78340843920729
P         9.68647838972365   12.27277618382383   11.64661508608801
P         9.13147174039521    8.33510285990836   10.59905948864121
In        7.20019356499684    9.62778036278576   13.98108412871568
In       10.20479157065558   11.11478185672524   16.05927384536552
In        6.83102378967639   13.13564495291527   15.31884087589852
P         8.54028471718498   11.70143679341906   14.34468535007735
P        11.16929179033350    8.87742971610248   16.31761654832339
In       14.63983473197439    7.99032905010039    5.59795862312944
In       12.17159293875877    4.12958671656823    3.94656311221009
In       10.83981486508889    0.26900904565378    7.27474728537099
In       12.08533266938619    2.37798272499492   10.12910535307441
In       12.72596689516756    6.25371710429264    9.16290303761345
In        9.80904788458779    4.63644488815370    7.90470401790751
P        11.26665195861947    2.62624816918485    7.85151427653047
P        11.07042082000883    6.72661219789778    7.40732729993049
In       10.68162660332903    4.36785597507685   14.43994654085144
P        11.28827758143883    6.05099282098371   12.79190799794621
In       10.90153011415071    7.91396275997243    3.38455545330684
In        9.71614362823636    8.65745955256926    8.20878218227157
In       12.79003014472974    9.76504609668991    9.21546107868158
In       10.70682043567798   12.51349393001596    9.38810545092118
P        11.05160825327898   10.70309287895084    7.74242373698061
P        12.13690172421861    7.99417695670198   10.79679598255620
In       12.04729997150758    7.95830353396479   14.18870935723205
In       12.85757687461197   11.52061599843071   12.98153322789601
P        11.03174720291850    9.91419762362712   13.02416288004332
