122
 energy: -8.793165190037 gnorm: 0.000305004432 xtb: 6.4.1 (afa7bdf)
In        7.45098489752347    9.34759462866907    4.55502747474400
P         8.38824555966193   11.59267482987685    4.66404847591938
P         8.60267056333054    7.26840830744078    4.04147391887212
P         8.25332969538345   13.40641085852965   10.57914262736368
P         8.22038946083384    8.96351978420087   10.18231543148660
P         8.14555012501784   15.88889231946339    5.18816963599576
In       10.04755574977140    1.67862362594152    3.52455650101466
In       11.44688227467320    4.91733413945360    3.54723240275004
P        10.65301806818013    5.24084239761790    1.25053348749929
P        12.32272597654334    2.56556683300630    3.71944523912448
In       10.51650470284502    2.33519845898120    9.47957360610614
In       10.96864445303829    6.67214498640337    9.47306831981961
In        8.69040543692165    4.99274941722782    6.97267549993724
P        10.10083419310702    6.97203860396485    7.16251891265639
P        11.87667712430030    4.35135617490070    9.54564179136256
In        9.58349534652225    7.39001210364789    1.79715933766610
In       11.03066450284335    9.47817478285308    4.10863820209663
In       10.85877525750795   14.01062064288552    4.54532754963146
In        9.24063124191787   11.88317768654317    2.37955524338832
P        10.35993771428863    9.75224748115508    1.74419423833848
P        10.18052503328575   14.18290233579136    2.16458891700414
P        11.87238938297461   11.74405342876105    4.69703559778350
P        12.10269557303621    7.23291963579965    4.18530405396595
In        9.16659098933121    9.14998882589862    7.96076180470827
In       11.04335362492330   11.25298103191105    9.94808607291989
In       11.14681402016977   15.82422839176430   10.36076030789617
In        9.14628041075654   13.62266504277102    8.33967477942974
P        10.12834958755699   11.43562541798550    7.64154862839472
P        10.09047586197983   15.91870601933605    8.11387176284470
P        11.99648237521837   13.48931302731300   10.48567088531043
P        11.89254980317804    8.91284051836531   10.02986695563856
In        8.90932924126236   16.19642802032732    2.90449439073995
In       10.59361793841099   18.61282692927832    4.83567762650120
P         9.72391301049143   18.49216487310001    2.54476182666373
P        11.50438982187195   20.80071634431131    5.53279030559644
P        11.57156296680511   16.33253422155126    5.09510581726006
In        8.99637916754605   18.11160664888525    8.38563084979055
In       11.34090157834912   20.39665288819018   10.66977508190848
P        10.09941854988858   20.27556244130116    8.55169742220051
P        12.47633578770808   22.57628776386991   10.82516568398714
P        12.15181798565773   18.04995280901085   10.87327197013405
In       15.15652350695141    0.38636118986023    3.69220362563690
In       14.69456957216220    5.18155760829285    3.80211993864903
In       13.41659106345582    2.88143965424072    1.50468058043275
P        14.63699487072744    0.74566037158351    1.34580768936540
P        14.08365803085100    5.27719416189136    1.41534523830465
P        15.38990407900296    2.81437829647626    4.05746467422336
In       14.26721459389453    2.03515918314816    8.92271699983032
In       14.35975196213770    6.69592074367966    9.42977000201332
In       12.60439734560814    4.58318104390890    7.19030230601807
P        13.41966674205593    2.31392300440490    6.65217270117655
P        13.49473936220300    6.90779150404589    7.10978483186806
P        15.04984220002880    4.30865216631835    9.47502659573976
In       13.04453669904068    7.49220818210392    1.90047923033781
In       14.40115690644498    9.67051295333354    4.19550003444825
In       14.13001039468642   14.16579333753312    4.57512274040527
In       12.71875370020203   11.98691443436950    2.37094365660531
P        13.85362030089685    9.84626825639041    1.79272574057869
P        13.44870399915459   14.36528810886722    2.20726724418422
P        15.23059039609821   11.94734365539832    4.72928155761072
P        15.49315116395968    7.45147492344609    4.41337273047567
In       12.50496164372415    9.12985442060595    7.64234925416461
In       14.42127840713922   11.17132498606465    9.86747043088920
In       14.63139288907564   15.79672518159789   10.18901015032490
In       12.52496775017836   13.68347672036592    8.07861101771902
P        13.46814750429863   11.42858994501627    7.58184977638827
P        13.55691882517750   15.94858646006237    7.95280793720825
P        15.36190998739560   13.42025906697905   10.39987541355865
P        15.41209260408871    8.87916573833545   10.05940283120018
In       12.40320310988417   16.56113389608274    2.76374958082024
In       13.92225088168448   18.67005193932239    5.01014912188880
In       12.41964190766438   21.18996229513248    3.30257773276439
P        13.16544581337886   18.92782306590235    2.66938353739911
P        15.12988029770338   20.78422188087782    5.36798506696117
P        14.98096718635705   16.42291830530883    5.11716195876496
In       12.64509972032229   18.20480729124817    8.45551794126935
In       14.72718652102976   20.21397078871845   10.48000774227784
In       13.29124094577853   22.91688778184547    8.56244867788453
P        13.58919779630580   20.49264490578172    8.28579198264330
P        16.49766160369254   21.89577606327288   10.23709167188794
P        15.79225230960283   17.96956455189078   10.50949405569671
In       18.23091779208269    5.50739193906536    4.30457921426903
In       16.79782806394029    3.16691562637298    2.02939021419353
P        18.60850597644889    1.63713727504895    2.57468933219780
P        17.58246158834411    5.51930780502869    1.91930763129501
P        20.19627528977014    4.18087664391771    4.84058982872739
In       17.77596446551248    6.36408089865409    9.34992468187350
In       15.97723584839028    4.48118910840274    7.17957684252742
P        17.54130701498579    2.61585434663230    7.16877291828230
P        16.83271360442575    6.82938848841275    7.10770416232931
In       16.57990532568763    7.76902866236397    2.20692985602701
In       17.81604720253042   10.04745425452764    4.53509209834989
In       17.71520063794373   14.48205224998505    4.62897057614633
In       16.17025568699023   12.24360715903159    2.44897860062735
P        17.39019809410060   10.11081650020240    2.10424664252096
P        17.00665505023764   14.57215756961075    2.26990156359018
P        18.77577010886002   12.27540911240037    5.23747700972714
P        18.92522070447311    7.82830418223226    4.89267600418078
In       15.90155234890223    9.07217556279716    7.63746278203784
In       17.76634874161966   11.06736554736723    9.68425416646331
In       18.17120353802827   15.47466259816199    9.77386025899011
In       15.83697324870956   13.60702209761573    7.98456623244081
P        16.77846709980238   11.39372147379286    7.42423491023976
P        16.81682976544569   15.86615556180616    7.73415461689801
P        19.07537431205526   13.17024031782407    9.84411828672221
P        18.53392471618753    8.71094541286532    9.49766182079274
In       15.79864761303936   16.67778439908286    2.78101046419417
In       19.08974061160072   17.86694025454382    3.31511952478788
In       16.24994197239256   20.90181034063262    3.21723504068166
P        17.04178165385202   18.77239418869516    2.31736212496204
P        18.04900820482898   16.87031358278781    5.29078148253129
In       16.10792332055741   18.22575397662259    8.07365788346356
In       19.65755998189972   19.00860582358601    8.14519292555283
In       17.31880241756042   21.91477095042957    7.96559642191757
P        17.68535159698128   19.74101211632891    6.87220410603423
P        20.13723839231287   16.75103884876964    8.96411470122461
In       20.65723071023327    8.21616829946382    3.22300820580538
In       20.53596762562372   12.60932696277348    3.56580773691106
In       20.78805383934453    8.44986043590806    8.52965168611325
In       20.66933957581882   12.07136434274118    8.33475959587402
P        20.01200719430502   10.15551247450321    6.94771897871538
In       21.12861691571851   15.57232986691131    7.09143623358550
