80
 energy: -5.725160037801 gnorm: 0.000659666901 xtb: 6.4.1 (afa7bdf)
P         9.07586106123386    6.64594110941415    3.82684476675337
P         9.85564139048127    6.05602520719965    8.58287179721862
In       11.22931070723853   11.38484064767834    2.36877634419290
In       10.06804962453871    8.29551486457357    2.28360229432983
In        7.53183402315249   10.76961610671262    1.52136595818868
P         9.23209547618998    9.51556436082515    0.32238556123694
P         8.93875005729345   12.21239938792401    2.92640685177351
P        12.83018185337418   12.39051807803828    4.01124449626952
P        11.75318499998486    9.38190610891319    3.78877532043877
In       11.58444532346344   11.54204779278705    7.63915543431361
In        9.12731955732913    8.23863772657074    7.71741630005608
In        8.11731223689487   11.24331383000139    6.59171838938701
P         8.48542689567313    9.08445071782124    5.48377316527954
P        10.29163653463169   11.87372562537585    5.52674168610175
P        13.88718957045378   11.25087304701770    6.71298186914862
P        10.96402989045228    9.46542691171643    8.83151518157978
In        9.30564737817398   14.37663524619730    1.81156866658626
In       14.69575843827646   17.82145809507817    2.35603149519465
In       12.85764617662255   14.79278684357390    3.38963250664781
In       10.98911642025025   18.01794092381572    2.76586512308267
P        11.30155612058350   15.80173027578936    1.75972934423168
P        12.97143918392938   19.46477289144808    3.08659804006271
P        16.56539226247324   18.76963460745466    3.74549574476117
P        14.91991116900819   16.01312937739807    4.07549300050922
In        9.82674583621302   14.17205451212945    6.38129289878936
In       14.59719943333589   17.07218684585532    7.71295346310171
In       14.10372376913597   13.73248144296807    6.97994903323085
In       11.51953275684882   17.17782002625538    6.51511047076024
P        11.95738996082492   14.90824594134914    7.41022848364061
P        13.67093555400105   18.09618719544466    5.61730176907773
P        16.02526306875588   18.78436392631235    8.79813327213755
P        16.06824408771375   15.27569461924575    6.78236103625175
In       12.78361853840670   20.71957241254845    0.97177923241760
In       16.20725107028120   20.84048086361796    2.41267344190048
P        15.09572329186420   20.41806539457767    0.26679960275133
P        17.93464425220317   22.21552864277727    3.49810954899769
In       13.11542184980675   20.17886306338639    6.87830682454348
In       16.44321553995188   21.02977498218078    7.84705032199191
P        15.18286968804038   20.85391886747806    5.74134592494614
P        18.83032978529211   21.03635112078346    8.42709888802977
In       14.34897523127901    4.41997377730249    2.37123727109337
In       10.01378543809401    4.78462337722531    2.54761674062967
P        12.29446239253410    5.69841638562718    2.78372796686116
P        16.08887598636368    5.92521478692263    1.62158028714096
In       14.13964016317651    5.32157227546545    6.61379984329643
In       10.88149277984744    5.61772445966291    6.42076192288240
P        12.71088948932231    7.07218633768037    5.53513835609618
P        16.12564065717340    6.42849576412824    5.73702867659771
In       13.33374724271672    7.94430829189039    2.45358030330988
In       18.12632522920600   11.44393601904908    2.53484776878282
In       16.81793587138326    8.06068551685795    2.57148618704656
In       14.65017810393275   11.11800419156234    2.87175473236279
P        15.01146808300772    8.92758055477761    4.04773485619808
P        16.44287204514315   12.29683938551776    4.18202114817390
P        18.94345856428291   13.25168488543378    1.07299484236955
P        17.05251323792742    9.88972062483255    0.95441123848305
In       12.83544094600406    8.26779726456735    7.72625731195811
In       18.14713475880666   11.46331587455150    7.49444191675738
In       16.76237244123053    8.12191824996515    7.39772663616392
In       14.90767294581602   10.72612376493864    8.91272982489340
P        14.93495426021874    8.24878665106446    9.04863731432295
P        16.82831773181341   12.21081469822639    9.43865133792360
P        18.32516357799315   13.41781448873723    5.95591947814340
P        16.69238416105857   10.14477703370255    5.96699653511246
In       16.31338180117671   14.37817134941195    2.79632513267568
In       22.10963701440809   17.34672990155823    2.02272705455838
In       20.12725449234984   14.32660464753702    2.92852490767417
In       18.04861010699413   17.36766677157691    2.29800993196168
P        18.22318279608880   15.52330952061134    3.97216152252241
P        20.13193265350786   18.70826646655214    2.48520315768189
P        22.45798708815613   15.05822546988673    2.72457227548788
In       16.93965966633675   14.65424856297952    9.02341245283499
In       21.20146524528452   17.52189293825239    6.34962973674677
In       20.01462128520750   14.41788988254315    7.47586210457404
In       17.98073150188488   17.80786446239122    7.61445866030430
P        18.99738656602014   16.04334660079601    9.03307655598459
P        19.02040970860105   18.21000405442933    5.36359573353111
P        22.12238484732881   15.27554160820361    6.55133459887228
In       19.78087420154696   21.13087531886066    2.35006840833483
In       19.54681966842213   20.50940912187292    6.16587171972577
