56
 energy: -3.743338180199 gnorm: 0.000762198637 xtb: 6.4.1 (afa7bdf)
P         6.93114997243203    4.19606001098986    7.29859551694770
In        3.78749804433922    8.97656839334408    5.05899523472606
In        5.67680385761398    6.06024653692915    6.30846187555323
P         6.96218290635576   10.83395852325987    6.95334095044999
P         5.86675795110557    7.79014592535172    4.51410517673891
P         5.59947606591461   13.19844953598987    4.53023213791748
In        8.52067576530984    3.81533516110895    1.80260595582056
In       10.20386444875533    0.75423319645438    3.31799525750677
In        6.64799759133369    2.78518254324927    5.30311171305922
P         8.34536129955559    1.08372948563740    4.83410219948290
P         6.88600698159036    4.51250580591603    3.52543542010405
P         9.90600233946347    3.84146901486980    5.85140698994878
P        10.76927638491822    2.97985678986057    2.38314302910570
In        5.53309324636234    6.33312352875703    2.55508696540416
In        8.35456863824922    8.64233999539880    1.42454306665303
In        8.51891718995041    5.69418071717754    5.02092800743543
In        7.77119165663077    9.17135311399971    5.35397136497860
P         8.60527825678613    7.36571629679209    6.85962950982559
P         8.52250352702429   10.32470618667770    3.22950196781497
P        10.54372983421300   10.31031405565373    6.29564034160667
P         9.27300851731585    7.09749718633559    3.10767546395523
In        6.31401713468316   11.44217160360907    3.02205953954267
In        9.34100702147905   13.75547480037685    1.44287791955566
In       10.25490428863787   11.77915797493192    4.29886187566305
In        7.45565585340903   14.44918255985497    5.44289363667748
P         9.79320290126676   13.83484182273076    5.59335952591262
P        11.22310710137473   16.37752062514892    3.62406316857610
P        11.42271656170553   12.66839251566330    2.21395878983640
In       12.40594067885736    2.96408442081646    0.57184279397823
In       15.35972301287108    4.89411939105233    2.29377138490586
In       11.96116875459647    3.60925244616924    4.50606322021325
P        13.54443729230025    1.77363460254524    4.78917346388684
P        13.22435774309044    5.46220384038566    3.38096306385009
P        14.72976542638711    4.57284940696590    7.19532620974392
P        16.88959054992926    3.62022367552961    3.66848481366590
In       11.36224999581344    6.31885326427122    2.00496202042502
In       14.32122759069514    8.39127227585200    2.56179536267323
In       13.98628438843809    6.31176166727578    5.61249304617874
In       10.70327210316883    8.36140419691916    4.74897602040454
P        11.65779724188704    6.72948200870202    6.31576759473749
P        12.06471531287438    9.38125859358182    2.94309693044509
P        13.48931523920917    9.58095051724243    6.70401906339901
P        15.68070876843831    7.83126940402734    4.55509468892867
In       11.58806931826006   10.60229639868909    0.85150551639426
In       14.41675415645438   13.30829439480582    0.65954959867734
In       13.21200150435652   10.88329305648262    4.62504329284095
In       12.63431207084755   14.37341893769849    3.61995124870080
P        12.88930235090549   13.08757120408876    5.71917233983252
P        14.69910014613582   14.98848320399372    2.39563475894459
P        14.33952815667678   11.76137653499395    2.58686940530769
In       16.71416185683422    3.76900465586587    6.07350829288647
In       18.05016747198719    7.48211203516288    4.10237608708085
In       15.89720424415552    9.06427629585468    6.73469408026141
P        17.03272479429430    7.37979635723078    8.09394268528778
P        16.90212095429949   10.95183656594456    5.50565477277335
In       16.67069353843906   11.14011674181334    3.10480564285743
